55
Molecule with added oxygen and hydrogen atoms
  Fe         -0.78349324440288      0.71383020667124      0.03191933914518
  O          -1.30954597385995      2.65211058444225     -0.29657714997230
  H          -1.42054946409547      3.08048978040837     -1.16356244408180
  O           1.17968367712210      1.24993769293636      0.04387610444811
  H           1.94032194621778      0.65675260342632      0.17427955482061
  O          -0.88482356381583      1.02324101208926      2.04097172812707
  H          -1.67152184061782      0.90967598644129      2.60274243131845
  O          -0.25773713964483     -1.22540017213991      0.35946840630611
  H          -0.06855904840078     -1.89547614579632     -0.32070332857197
  O          -2.74745338084093      0.17576370940759      0.02185364960607
  H          -3.50826074045548      0.76798363355741     -0.11169459074056
  O          -0.68723124468976      0.40268015344699     -1.97742105292751
  H           0.09615386179930      0.51868437112106     -2.54336263660694
  H          -1.41490770013201      0.10465340566456     -2.55105860453383
  H           1.53369362770807      2.14859519346539     -0.07672395962083
  H          -1.50154730020505      3.32271972275342      0.38228455376620
  H          -3.10083058509064     -0.72292071049875      0.14382730623556
  H          -0.15931417509256      1.31868494200758      2.61870513350693
  H          -0.14559528150324     -1.65592619940415      1.22522096977545
O 0.9055225903892692 0.7129515668421031 3.9088530699031727
H 1.8055225903892693 0.7129515668421031 3.9088530699031727
H 0.6125112513778281 1.5639182848814883 3.9088530699031727
O -2.847654368411906 -1.1767767027882792 3.2039328505906344
H -1.9476543684119059 -1.1767767027882792 3.2039328505906344
H -3.140665707423347 -0.325809984748894 3.2039328505906344
O -0.4844782084526413 4.135153931892352 2.4990126312780956
H 0.41552179154735874 4.135153931892352 2.4990126312780956
H -0.7774895474640823 4.9861206499317365 2.4990126312780956
O 1.554561263990146 -2.338352746739215 1.7940924119655572
H 2.454561263990146 -2.338352746739215 1.7940924119655572
H 1.261549924978705 -1.4873860286998297 1.7940924119655572
O -4.8174315332070385 1.4262643474387284 1.0891721926530185
H -3.9174315332070386 1.4262643474387284 1.0891721926530185
H -5.11044287221848 2.2772310654781136 1.0891721926530185
O 2.7714514494771 2.9751582728011075 0.3842519733404801
H 3.6714514494771 2.9751582728011075 0.3842519733404801
H 2.478440110465659 3.8261249908404924 0.3842519733404801
O -1.8789995067258567 -3.3573538822743867 -0.3206682459720586
H -0.9789995067258567 -3.3573538822743867 -0.3206682459720586
H -2.1720108457372977 -2.5063871642350017 -0.3206682459720586
O -2.67233072285979 4.3472449326156415 -1.025588465284597
H -1.77233072285979 4.3472449326156415 -1.025588465284597
H -2.965342061871231 5.198211650655026 -1.025588465284597
O 2.8267664636626026 -0.6059928172295121 -1.7305086845971367
H 3.7267664636626026 -0.6059928172295121 -1.7305086845971367
H 2.5337551246511616 0.24497390080987302 -1.7305086845971367
O -3.960272954729499 -0.5978306080235394 -2.435428903909674
H -3.060272954729499 -0.5978306080235394 -2.435428903909674
H -4.25328429374094 0.2531361100158458 -2.435428903909674
O 0.40092017293056315 3.246802421786856 -3.1403491232222134
H 1.3009201729305633 3.246802421786856 -3.1403491232222134
H 0.10790883391912215 4.097769139826241 -3.1403491232222134
O -0.27892543490686583 -0.8999095487532294 -3.845269342534752
H 0.6210745650931342 -0.8999095487532294 -3.845269342534752
H -0.5719367739183068 -0.0489428307138442 -3.845269342534752
