55
Molecule with added oxygen and hydrogen atoms
  Fe         -0.78349864734905      0.71392292261949      0.03190371411572
  O          -1.30899859817998      2.64994901233142     -0.29633394138371
  H          -1.41943917130939      3.07745731008809     -1.16379267789942
  O           1.17741610560745      1.24943277414176      0.04366442085758
  H           1.93737359059928      0.65544378149202      0.17421480429494
  O          -0.88473423120437      1.02284705436718      2.03873422899820
  H          -1.67212416213883      0.90932017493527      2.59950956658363
  O          -0.25804201130989     -1.22310541051749      0.35909968370227
  H          -0.06847228790560     -1.89236522322574     -0.32173135401694
  O          -2.74517013782666      0.17607397827779      0.02221847199403
  H          -3.50544902977167      0.76893034574464     -0.11140632196384
  O          -0.68765505454208      0.40307239352534     -1.97526928957015
  H           0.09626897253958      0.51924856996967     -2.54038377039565
  H          -1.41597235866551      0.10481217667511     -2.54793530884986
  H           1.53037860150171      2.14844832613729     -0.07716543379523
  H          -1.50119344602708      3.31975793861724      0.38323680132700
  H          -3.09730137678715     -0.72304202133018      0.14445554715435
  H          -0.15871579243666      1.31853339865299      2.61567380415639
  H          -0.14618853479407     -1.65265773250191      1.22535246469067
O 0.9044159089863586 0.7129515668421044 3.906314720636138
H 1.8044159089863587 0.7129515668421044 3.906314720636138
H 0.6114045699749175 1.5639182848814897 3.906314720636138
O -2.846303808756269 -1.1755394795119432 3.2018560193721513
H -1.946303808756269 -1.1755394795119432 3.2018560193721513
H -3.13931514776771 -0.324572761472558 3.2018560193721513
O -0.4846748429614615 4.132913383084139 2.4973973181081637
H 0.4153251570385385 4.132913383084139 2.4973973181081637
H -0.7776861819729025 4.983880101123524 2.4973973181081637
O 1.553029650724213 -2.336355028453143 1.792938616844177
H 2.453029650724213 -2.336355028453143 1.792938616844177
H 1.260018311712772 -1.485388310413758 1.792938616844177
O -4.814791341493373 1.4257973346995731 1.0884799155801899
H -3.914791341493373 1.4257973346995731 1.0884799155801899
H -5.107802680504814 2.276764052738958 1.0884799155801899
O 2.769123126500874 2.97367718430946 0.3840212143162033
H 3.669123126500874 2.97367718430946 0.3840212143162033
H 2.476111787489433 3.8246439023488454 0.3840212143162033
O -1.8782831347261244 -3.3546890141426173 -0.32043748694778385
H -0.9782831347261244 -3.3546890141426173 -0.32043748694778385
H -2.1712944737375652 -2.5037222961032324 -0.32043748694778385
O -2.671094949281419 4.344865525789049 -1.0248961882117706
H -1.771094949281419 4.344865525789049 -1.0248961882117706
H -2.96410628829286 5.195832243828434 -1.0248961882117706
O 2.824401925414488 -0.6051292916536967 -1.7293548894757587
H 3.724401925414488 -0.6051292916536967 -1.7293548894757587
H 2.531390586403047 0.2458374263856885 -1.7293548894757587
O -3.958193952982585 -0.5969724263246073 -2.433813590739744
H -3.058193952982585 -0.5969724263246073 -2.433813590739744
H -4.251205291994026 0.25399429171477783 -2.433813590739744
O 0.40014385958437715 3.2451434852577905 -3.138272292003732
H 1.3001438595843773 3.2451434852577905 -3.138272292003732
H 0.10713252057293615 4.096110203297176 -3.138272292003732
O -0.2792566467938379 -0.8988535930659584 -3.842730993267719
H 0.6207433532061621 -0.8988535930659584 -3.842730993267719
H -0.5722679858052788 -0.047886875026573184 -3.842730993267719
