115
Molecule with added oxygen and hydrogen atoms
  Fe         -0.78340703389741      0.71375414606640      0.03197342971753
  O          -1.33845125572327      2.77365864531835     -0.26572570189881
  H          -1.45246421720191      3.22610911411308     -1.11228547024121
  O           1.30012772120978      1.27349368680149      0.05370174256288
  H           2.05741525092232      0.67779162722163     -0.02362527221843
  O          -0.86022075125108      0.94273037124192      2.14244207813271
  H          -1.62532059323283      0.77991084313651      2.71090532863469
  O          -0.22425512598549     -1.34669685190788      0.32472626104619
  H          -0.05203871140416     -1.99609075464447     -0.37024860101232
  O          -2.87052976300559      0.15035902239740      0.01602963855154
  H          -3.22784754743126     -0.74398037157562     -0.06575616382180
  O          -0.70729120157850      0.48440325167439     -2.07834181182579
  H           0.05883325143677      0.64874527578477     -2.64502621335250
  H          -1.44482237958089      0.24699099166060     -2.65699140748546
  H           1.65521043043112      2.16902072656805      0.13264380670364
  H          -1.52676637628067      3.41934618986609      0.42856652429389
  H          -3.62662470285805      0.74770009749689      0.09190677578068
  H          -0.12150653115013      1.18227682309759      2.71869266125030
  H          -0.12155803341869     -1.80344306431721      1.17045780518228
O 0.886779177501403 0.7129515668421043 4.043622003792836
H 1.786779177501403 0.7129515668421043 4.043622003792836
H 0.5937678384899621 1.5639182848814894 4.043622003792836
O -2.8325370329655795 -1.1629279851753234 3.3749836471080643
H -1.9325370329655795 -1.1629279851753234 3.3749836471080643
H -3.1255483719770205 -0.3119612671359382 3.3749836471080643
O -0.4853178488702023 4.125586662402464 2.706345290423294
H 0.4146821511297977 4.125586662402464 2.706345290423294
H -0.7783291878816433 4.976553380441849 2.706345290423294
O 1.56105390454923 -2.3468212466263916 2.037706933738523
H 2.46105390454923 -2.3468212466263916 2.037706933738523
H 1.268042565537789 -1.4958545285870064 2.037706933738523
O -4.856902247179176 1.43324616097643 1.3690685770537536
H -3.9569022471791757 1.43324616097643 1.3690685770537536
H -5.149913586190617 2.284212879015815 1.3690685770537536
O 2.8386124374826123 3.017880595880186 0.7004302203689821
H 3.738612437482612 3.017880595880186 0.7004302203689821
H 2.545601098471171 3.868847313919571 0.7004302203689821
O -1.9130957870250884 -3.4841903454740475 0.03179186368421134
H -1.0130957870250885 -3.4841903454740475 0.03179186368421134
H -2.2061071260365295 -2.6332236274346625 0.03179186368421134
O -2.764139344639621 4.524016847169024 -0.6368464930005595
H -1.864139344639621 4.524016847169024 -0.6368464930005595
H -3.057150683651062 5.374983565208409 -0.6368464930005595
O 3.0995585062075777 -0.7056160336456432 -1.3054848496853306
H 3.9995585062075776 -0.7056160336456432 -1.3054848496853306
H 2.8065471671961366 0.145350684393742 -1.3054848496853306
O -4.348683555714201 -0.758160857832427 -1.9741232063701013
H -3.4486835557142013 -0.758160857832427 -1.9741232063701013
H -4.641694894725642 0.09280586020695814 -1.9741232063701013
O 0.66717461908252 3.8157727079703347 -2.642761563054872
H 1.56717461908252 3.8157727079703347 -2.642761563054872
H 0.37416328007107896 4.66673942600972 -2.642761563054872
O 0.0463136311553336 -1.9368229417777223 -3.3113999197396424
H 0.9463136311553336 -1.9368229417777223 -3.3113999197396424
H -0.2466977078561074 -1.0858562237383371 -3.3113999197396424
O -2.231100217897123 1.5511024197034509 -3.980038276424414
H -1.3311002178971232 1.5511024197034509 -3.980038276424414
H -2.524111556908564 2.402069137742836 -3.980038276424414
O 1.4706574109241215 0.8787362026853329 6.323402416047373
H 2.3706574109241214 0.8787362026853329 6.323402416047373
H 1.1776460719126804 1.729702920724718 6.323402416047373
O -3.2964767222909637 -1.5406382469469304 5.62433457689591
H -2.3964767222909638 -1.5406382469469304 5.62433457689591
H -3.5894880613024047 -0.6896715289075452 5.62433457689591
O -0.2629465096400438 5.351389262688398 4.925266737744448
H 0.6370534903599563 5.351389262688398 4.925266737744448
H -0.5559578486514848 6.202355980727783 4.925266737744448
O 2.4773506021989866 -3.207479273108136 4.226198898592985
H 3.3773506021989865 -3.207479273108136 4.226198898592985
H 2.1843392631875456 -2.3565125550687505 4.226198898592985
O -6.216046388770318 1.8623230891376839 3.5271310594415235
H -5.316046388770317 1.8623230891376839 3.5271310594415235
H -6.509057727781759 2.713289807177069 3.5271310594415235
O 4.427103706079098 4.1118563688105745 2.8280632202900606
H 5.3271037060790984 4.1118563688105745 2.8280632202900606
H 4.134092367067657 4.962823086849959 2.8280632202900606
O -2.291322230136709 -5.206536119859084 2.128995381138598
H -1.391322230136709 -5.206536119859084 2.128995381138598
H -2.58433356914815 -4.355569401819699 2.128995381138598
O -3.647823126225181 6.640321551479392 1.4299275419871358
H -2.747823126225181 6.640321551479392 1.4299275419871358
H -3.940834465236622 7.491288269518777 1.4299275419871358
O 5.548037256855196 -1.3867763114346614 0.7308597028356744
H 6.448037256855196 -1.3867763114346614 0.7308597028356744
H 5.255025917843755 -0.5358095933952762 0.7308597028356744
O -6.794186798445301 -1.6552350301907781 0.031791863684211254
H -5.8941867984453005 -1.6552350301907781 0.031791863684211254
H -7.087198137456742 -0.8042683121513929 0.031791863684211254
O 2.143710045120358 6.860430811579519 -0.6672759754672519
H 3.043710045120358 6.860430811579519 -0.6672759754672519
H 1.850698706108917 7.711397529618904 -0.6672759754672519
O 1.2875675341489727 -5.31598772125739 -1.3663438146187132
H 2.1875675341489726 -5.31598772125739 -1.3663438146187132
H 0.9945561951375317 -4.465021003218005 -1.3663438146187132
O -6.107440497544063 4.038261985546187 -2.065411653770177
H -5.207440497544063 4.038261985546187 -2.065411653770177
H -6.400451836555504 4.889228703585572 -2.065411653770177
O 5.227784569409195 2.1721541872590797 -2.7644794929216396
H 6.1277845694091955 2.1721541872590797 -2.7644794929216396
H 4.934773230397754 3.023120905298465 -2.7644794929216396
O -3.9031689311631705 -3.7407750435227007 -3.463547332073103
H -3.0031689311631706 -3.7407750435227007 -3.463547332073103
H -4.196180270174612 -2.8898083254833153 -3.463547332073103
O -1.3171703258193248 5.984997853681289 -4.162615171224564
H -0.4171703258193248 5.984997853681289 -4.162615171224564
H -1.6101816648307659 6.835964571720674 -4.162615171224564
O 2.7776806617207854 -2.014730533210524 -4.861683010376027
H 3.6776806617207853 -2.014730533210524 -4.861683010376027
H 2.4846693227093444 -1.1637638151711387 -4.861683010376027
O -4.234072741537716 0.7307499268417134 -5.560750849527489
H -3.334072741537716 0.7307499268417134 -5.560750849527489
H -4.527084080549157 1.5817166448810984 -5.560750849527489
O 0.8515903609875768 2.378466947209815 -6.259818688678952
H 1.751590360987577 2.378466947209815 -6.259818688678952
H 0.5585790219761357 3.2294336652492 -6.259818688678952
