115
Molecule with added oxygen and hydrogen atoms
  Fe         -0.78400649270196      0.71353105487946      0.03262609246935
  O          -1.33942641736777      2.76548564128770     -0.26406324295411
  H          -1.46493623163850      3.21327451637873     -1.10741817719586
  O           1.29394134712373      1.27206847491589      0.05174500282294
  H           2.04710560566938      0.67721876028357     -0.02653108518626
  O          -0.86324711300962      0.94326708610629      2.13832429437544
  H          -1.62320297483270      0.77161624672518      2.70500536714683
  O          -0.22383485616686     -1.33892187267020      0.32234510361851
  H          -0.06172975404982     -1.98609898473806     -0.37220586346964
  O          -2.86443663421683      0.15320423606988      0.01766328032653
  H          -3.22116982216479     -0.73653766210709     -0.07301997489960
  O          -0.70388564119294      0.48233176452798     -2.07337985333799
  H           0.05823268365900      0.65529099238317     -2.63675015932830
  H          -1.43654369565297      0.24280913439833     -2.65126970646751
  H           1.64892098616816      2.16297636880036      0.13823943511040
  H          -1.51462655063131      3.41158132309678      0.42832167759794
  H          -3.61625162041508      0.74948695538336      0.09741723738329
  H          -0.12927402984108      1.18693733452067      2.71283967976020
  H          -0.11314635873798     -1.79344160024203      1.16415630222783
O 0.8832095049542403 0.7129515668421036 4.035054789679644
H 1.7832095049542405 0.7129515668421036 4.035054789679644
H 0.5901981659427993 1.5639182848814888 4.035054789679644
O -2.828164151312561 -1.158922067374364 3.3678443020137383
H -1.928164151312561 -1.158922067374364 3.3678443020137383
H -3.121175490324002 -0.3079553493349789 3.3678443020137383
O -0.4859574250278205 4.118299021965856 2.700633814347833
H 0.4140425749721795 4.118299021965856 2.700633814347833
H -0.7789687640392615 4.969265740005241 2.700633814347833
O 1.556044326583346 -2.3402871392700932 2.033423326681927
H 2.456044326583346 -2.3402871392700932 2.033423326681927
H 1.2630329875719049 -1.489320421230708 2.033423326681927
O -4.848206358412753 1.431707980695358 1.3662128390160222
H -3.948206358412753 1.431707980695358 1.3662128390160222
H -5.141217697424194 2.282674698734743 1.3662128390160222
O 2.8308746489216805 3.012958448177555 0.699002351350116
H 3.7308746489216804 3.012958448177555 0.699002351350116
H 2.5378633099102395 3.86392516621694 0.699002351350116
O -1.9106863608882245 -3.4752274003416597 0.03179186368421027
H -1.0106863608882244 -3.4752274003416597 0.03179186368421027
H -2.2036976998996654 -2.6242606823022747 0.03179186368421027
O -2.7599125254120476 4.515878363954223 -0.6354186239816955
H -1.8599125254120477 4.515878363954223 -0.6354186239816955
H -3.0529238644234886 5.366845081993608 -0.6354186239816955
O 3.0912634705138693 -0.7025866999144093 -1.3026291116476016
H 3.991263470513869 -0.7025866999144093 -1.3026291116476016
H 2.7982521315024282 0.14838001812497592 -1.3026291116476016
O -4.34107296173695 -0.7550193152728963 -1.9698395993135072
H -3.44107296173695 -0.7550193152728963 -1.9698395993135072
H -4.634084300748391 0.09594740276648883 -1.9698395993135072
O 0.6640739093793715 3.809146671437726 -2.637050086979413
H 1.5640739093793714 3.809146671437726 -2.637050086979413
H 0.3710625703679305 4.660113389477111 -2.637050086979413
O 0.044538762485413774 -1.9311643807783272 -3.304260574645318
H 0.9445387624854138 -1.9311643807783272 -3.304260574645318
H -0.24847257652602722 -1.080197662738942 -3.304260574645318
O -2.2280116971941695 1.5493125588257857 -3.9714710623112244
H -1.3280116971941696 1.5493125588257857 -3.9714710623112244
H -2.5210230362056105 2.400279276865171 -3.9714710623112244
O 1.467688696317142 0.878789481575044 6.314575067093379
H 2.367688696317142 0.878789481575044 6.314575067093379
H 1.174677357305701 1.729756199614429 6.314575067093379
O -3.292756981508953 -1.5371905013559615 5.61648804449236
H -2.392756981508953 -1.5371905013559615 5.61648804449236
H -3.585768320520394 -0.6862237833165763 5.61648804449236
O -0.2634829175065682 5.345167253401545 4.918401021891342
H 0.6365170824934319 5.345167253401545 4.918401021891342
H -0.5564942565180092 6.19613397144093 4.918401021891342
O 2.472969461947567 -3.2016928914451634 4.2203139992903225
H 3.3729694619475667 -3.2016928914451634 4.2203139992903225
H 2.179958122936126 -2.3507261734057785 4.2203139992903225
O -6.20823038995914 1.8609963613341922 3.5222269766893044
H -5.30823038995914 1.8609963613341922 3.5222269766893044
H -6.501241728970581 2.7119630793735774 3.5222269766893044
O 4.419986994247264 4.107373467388575 2.8241399540882854
H 5.319986994247264 4.107373467388575 2.8241399540882854
H 4.126975655235823 4.95834018542796 2.8241399540882854
O -2.289012756150628 -5.197944991745536 2.1260529314872665
H -1.389012756150628 -5.197944991745536 2.1260529314872665
H -2.582024095162069 -4.346978273706151 2.1260529314872665
O -3.643610434189203 6.632291125254374 1.4279659088862475
H -2.743610434189203 6.632291125254374 1.4279659088862475
H -3.936621773200644 7.483257843293759 1.4279659088862475
O 5.539347836171694 -1.3835444395034178 0.7298788862852297
H 6.439347836171694 -1.3835444395034178 0.7298788862852297
H 5.246336497160253 -0.5325777214640326 0.7298788862852297
O -6.785559648483217 -1.6516265013176468 0.03179186368421029
H -5.885559648483216 -1.6516265013176468 0.03179186368421029
H -7.078570987494658 -0.8006597832782616 0.03179186368421029
O 2.139797014202474 6.852091564388751 -0.6662951589168092
H 3.039797014202474 6.852091564388751 -0.6662951589168092
H 1.846785675191033 7.703058282428136 -0.6662951589168092
O 1.2848557010223054 -5.307243028731188 -1.364382181517827
H 2.1848557010223053 -5.307243028731188 -1.364382181517827
H 0.9918443620108643 -4.456276310691803 -1.364382181517827
O -6.0997768765846825 4.033882339609683 -2.0624692041188473
H -5.199776876584682 4.033882339609683 -2.0624692041188473
H -6.3927882155961235 4.884849057649068 -2.0624692041188473
O 5.219544474411384 2.1703927556230553 -2.760556226719866
H 6.119544474411384 2.1703927556230553 -2.760556226719866
H 4.926533135399943 3.0213594736624403 -2.760556226719866
O -3.8985979800605572 -3.7342404293011544 -3.4586432493208856
H -2.9985979800605573 -3.7342404293011544 -3.4586432493208856
H -4.191609319071998 -2.8832737112617695 -3.4586432493208856
O -1.3162276209175725 5.977886869451313 -4.156730271921903
H -0.4162276209175725 5.977886869451313 -4.156730271921903
H -1.6092389599290136 6.828853587490698 -4.156730271921903
O 2.77287814792523 -2.0106176196133005 -4.854817294522923
H 3.6728781479252297 -2.0106176196133005 -4.854817294522923
H 2.4798668089137887 -1.1596509015739154 -4.854817294522923
O -4.229037520852605 0.731010835635787 -5.55290431712394
H -3.3290375208526055 0.731010835635787 -5.55290431712394
H -4.5220488598640465 1.5819775536751721 -5.55290431712394
O 0.8494902190346466 2.376416051578747 -6.25099133972496
H 1.7494902190346466 2.376416051578747 -6.25099133972496
H 0.5564788800232057 3.2273827696181323 -6.25099133972496
