115
Molecule with added oxygen and hydrogen atoms
  Fe         -0.78334670298159      0.71278134470076      0.03210153267695
  O          -1.34106737909011      2.76121548540652     -0.26224626375585
  H          -1.44682373396324      3.21355082965937     -1.10788255608829
  O           1.30919577223536      1.28622604030404      0.05588161238217
  H           2.06883919583927      0.69628300577199     -0.01661379576348
  O          -0.86863580096047      0.93562729599868      2.14804483908191
  H          -1.63584662227390      0.76986994721553      2.70938821640095
  O          -0.22574130755713     -1.33620485665846      0.32392175714741
  H          -0.04082754960543     -1.98212433197698     -0.36858638580563
  O          -2.87932569870836      0.13993809694726      0.01186765854976
  H          -3.23107754478091     -0.75367291867734     -0.07809470513414
  O          -0.69968139882701      0.49144837396224     -2.08445903930319
  H           0.06713146148073      0.65435779909628     -2.64722033261478
  H          -1.43286313321205      0.25657369114797     -2.66628897154138
  H           1.66045497359010      2.18002435886433      0.14577235238350
  H          -1.53399988826740      3.40581397969163      0.42929633681257
  H          -3.63917340351689      0.73018272986178      0.07963403224627
  H          -0.13679843536217      1.17360787661180      2.73023427379158
  H          -0.12193037403877     -1.78941897792744      1.16929484853365
O 0.8901100579577672 0.7129515668421031 4.051616116888113
H 1.7901100579577673 0.7129515668421031 4.051616116888113
H 0.5970987189463262 1.5639182848814883 4.051616116888113
O -2.8366173921143814 -1.1666659284002938 3.3816454080207947
H -1.9366173921143814 -1.1666659284002938 3.3816454080207947
H -3.1296287311258224 -0.31569921036090864 3.3816454080207947
O -0.484721056952844 4.132386798488505 2.711674699153478
H 0.415278943047156 4.132386798488505 2.711674699153478
H -0.777732395964285 4.98335351652789 2.711674699153478
O 1.5657283684169203 -2.3529182569838802 2.0417039902861607
H 2.4657283684169204 -2.3529182569838802 2.0417039902861607
H 1.2727170294054793 -1.501951538944495 2.0417039902861607
O -4.865016427278367 1.4346814451849652 1.3717332814188445
H -3.9650164272783672 1.4346814451849652 1.3717332814188445
H -5.158027766289808 2.2856481632243506 1.3717332814188445
O 2.8458326091797543 3.0224734781038123 0.7017625725515269
H 3.7458326091797542 3.0224734781038123 0.7017625725515269
H 2.5528212701683133 3.8734401961431972 0.7017625725515269
O -1.9153440353796103 -3.4925537172899546 0.03179186368420977
H -1.0153440353796102 -3.4925537172899546 0.03179186368420977
H -2.208355374391051 -2.6415869992505696 0.03179186368420977
O -2.7680834121616997 4.53161090918073 -0.6381788451831074
H -1.8680834121616998 4.53161090918073 -0.6381788451831074
H -3.061094751173141 5.382577627220115 -0.6381788451831074
O 3.107298648170734 -0.7084427210764557 -1.3081495540504249
H 4.0072986481707344 -0.7084427210764557 -1.3081495540504249
H 2.814287309159293 0.1425239969629295 -1.3081495540504249
O -4.355785041468213 -0.7610922479182503 -1.978120262917742
H -3.455785041468213 -0.7610922479182503 -1.978120262917742
H -4.648796380479654 0.08987447012113492 -1.978120262917742
O 0.6700679078126821 3.821955497931607 -2.648090971785059
H 1.5700679078126822 3.821955497931607 -2.648090971785059
H 0.3770565688012411 4.672922215970992 -2.648090971785059
O 0.047969770559477376 -1.942102975168748 -3.3180616806523755
H 0.9479697705594774 -1.942102975168748 -3.3180616806523755
H -0.24504156845196362 -1.0911362571293628 -3.3180616806523755
O -2.2339821330063208 1.5527725484164505 -3.9880323895196934
H -1.3339821330063208 1.5527725484164505 -3.9880323895196934
H -2.526993472017762 2.403739266455836 -3.9880323895196934
O 1.473427538157094 0.8786864878697191 6.331639273680176
H 2.373427538157094 0.8786864878697191 6.331639273680176
H 1.180416199145653 1.7296532059091043 6.331639273680176
O -3.2999476369732474 -1.5438553610693206 5.631656228125068
H -2.3999476369732475 -1.5438553610693206 5.631656228125068
H -3.5929589759846885 -0.6928886430299355 5.631656228125068
O -0.2624459838972641 5.357195060732259 4.931673182569962
H 0.637554016102736 5.357195060732259 4.931673182569962
H -0.5554573229087051 6.208161778771644 4.931673182569962
O 2.4814386731329297 -3.212878584001089 4.231690137014853
H 3.3814386731329296 -3.212878584001089 4.231690137014853
H 2.1884273341214886 -2.361911865961704 4.231690137014853
O -6.223339548884307 1.8635610676854424 3.531707091459746
H -5.323339548884307 1.8635610676854424 3.531707091459746
H -6.516350887895748 2.714527785724828 3.531707091459746
O 4.4337443569291235 4.116039393815152 2.8317240459046387
H 5.333744356929124 4.116039393815152 2.8317240459046387
H 4.1407330179176824 4.967006111854537 2.8317240459046387
O -2.2934772155538328 -5.214552558196517 2.1317410003495314
H -1.3934772155538329 -5.214552558196517 2.1317410003495314
H -2.586488554565274 -4.363585840157132 2.1317410003495314
O -3.651754016979556 6.647814795316779 1.4317579547944241
H -2.751754016979556 6.647814795316779 1.4317579547944241
H -3.944765355990997 7.498781513356164 1.4317579547944241
O 5.556145412725871 -1.389791992418847 0.731774909239318
H 6.4561454127258715 -1.389791992418847 0.731774909239318
H 5.26313407371443 -0.5388252743794619 0.731774909239318
O -6.802236849057619 -1.6586021722560778 0.03179186368421011
H -5.902236849057618 -1.6586021722560778 0.03179186368421011
H -7.09524818806906 -0.8076354542166926 0.03179186368421011
O 2.1473613201422976 6.868212218300482 -0.6681911818708979
H 3.0473613201422975 6.868212218300482 -0.6681911818708979
H 1.8543499811308566 7.719178936339867 -0.6681911818708979
O 1.2900979635754055 -5.3241474515628955 -1.3681742274260043
H 2.1900979635754054 -5.3241474515628955 -1.3681742274260043
H 0.9970866245639645 -4.4731807335235105 -1.3681742274260043
O -6.114591472877754 4.042348662175022 -2.068157272981113
H -5.214591472877753 4.042348662175022 -2.068157272981113
H -6.407602811889195 4.893315380214407 -2.068157272981113
O 5.2354734565137795 2.1737977908251382 -2.7681403185362203
H 6.13547345651378 2.1737977908251382 -2.7681403185362203
H 4.942462117502338 3.024764508864523 -2.7681403185362203
O -3.907434115819704 -3.7468725351597607 -3.4681233640913285
H -3.007434115819704 -3.7468725351597607 -3.4681233640913285
H -4.2004454548311445 -2.8959058171203758 -3.4681233640913285
O -1.3180499699733796 5.991633160118191 -4.168106409646434
H -0.4180499699733796 5.991633160118191 -4.168106409646434
H -1.6110613089848207 6.842599878157576 -4.168106409646434
O 2.7821619190928506 -2.018568319994431 -4.868089455201543
H 3.6821619190928505 -2.018568319994431 -4.868089455201543
H 2.4891505800814095 -1.167601601955046 -4.868089455201543
O -4.238771139209188 0.730506471190492 -5.568072500756648
H -3.338771139209188 0.730506471190492 -5.568072500756648
H -4.531782478220629 1.581473189229877 -5.568072500756648
O 0.8535500173382454 2.3803806515421884 -6.268055546311757
H 1.7535500173382454 2.3803806515421884 -6.268055546311757
H 0.5605386783268045 3.2313473695815738 -6.268055546311757
