115
Molecule with added oxygen and hydrogen atoms
  Fe         -0.78537891273445      0.71334896292406      0.03247010414631
  O          -1.33780085166972      2.76249901749562     -0.26001393245826
  H          -1.45215816609440      3.20884026236696     -1.10764691490464
  O           1.30583780149172      1.28298645520855      0.05679637797438
  H           2.04704172463215      0.73999814155793      0.35007399215956
  O          -0.90308720682848      1.04179765606771      2.13128257081597
  H          -1.68987963815918      0.94804500381614      2.68197461469698
  O          -0.22932386747284     -1.33505370764049      0.32258444443662
  H          -0.04420927220759     -1.98182487910595     -0.36890681183691
  O          -2.87592529033934      0.14109253253862      0.00772781918066
  H          -3.61787630147370      0.68092903406403     -0.28943736976076
  O          -0.66646717519122      0.38530614266369     -2.06742657162964
  H           0.12077667307595      0.48280680338631     -2.61684208332208
  H          -1.37671889952057      0.07149593740307     -2.64024867281061
  H           1.67390779302531      2.13115224451332     -0.21775192521421
  H          -1.52891092416945      3.40922669493690      0.42986970091336
  H          -3.24284419561980     -0.70585094986171      0.28750069184563
  H          -0.19070434554222      1.35319004308886      2.70277775714570
  H          -0.11779651520212     -1.78390562542366      1.16926161862193
O 0.8887958599066144 0.7129515668421033 4.048462041565343
H 1.7887958599066143 0.7129515668421033 4.048462041565343
H 0.5957845208951733 1.5639182848814883 4.048462041565343
O -2.835007487432538 -1.1651911238355757 3.3790170119184872
H -1.935007487432538 -1.1651911238355757 3.3790170119184872
H -3.128018826443979 -0.3142244057961905 3.3790170119184872
O -0.48495652105460607 4.129703806496169 2.7095719822716324
H 0.41504347894539395 4.129703806496169 2.7095719822716324
H -0.7779678600660471 4.980670524535554 2.7095719822716324
O 1.5638840598667993 -2.350512683071925 2.0401269526247767
H 2.4638840598667993 -2.350512683071925 2.0401269526247767
H 1.2708727208553583 -1.4995459650325398 2.0401269526247767
O -4.8618149795492265 1.4341151541593882 1.370681922977922
H -3.9618149795492266 1.4341151541593882 1.370681922977922
H -5.1548263185606675 2.2850818721987736 1.370681922977922
O 2.842983892242092 3.0206613575709564 0.7012368933310659
H 3.742983892242092 3.0206613575709564 0.7012368933310659
H 2.549972553230651 3.8716280756103414 0.7012368933310659
O -1.9144569895535202 -3.489253951031297 0.03179186368421028
H -1.01445698955352 -3.489253951031297 0.03179186368421028
H -2.207468328564961 -2.638287232991912 0.03179186368421028
O -2.7665272813070994 4.52861467391295 -0.6376531659626453
H -1.8665272813070994 4.52861467391295 -0.6376531659626453
H -3.0595386203185404 5.3795813919523345 -0.6376531659626453
O 3.104244777094637 -0.7073274522574581 -1.3070981956095014
H 4.004244777094637 -0.7073274522574581 -1.3070981956095014
H 2.811233438083196 0.1436392657819271 -1.3070981956095014
O -4.352983152039734 -0.7599356686928996 -1.9765432252563566
H -3.452983152039734 -0.7599356686928996 -1.9765432252563566
H -4.645994491051175 0.09103104934648554 -1.9765432252563566
O 0.6689263614676801 3.8195160796984284 -2.6459882549032123
H 1.56892636146768 3.8195160796984284 -2.6459882549032123
H 0.37591502245623915 4.670482797737813 -2.6459882549032123
O 0.047316341171699916 -1.940019739314621 -3.315433284550067
H 0.9473163411716999 -1.940019739314621 -3.315433284550067
H -0.24569499783974108 -1.0890530212752358 -3.315433284550067
O -2.2328450741206254 1.5521135995503612 -3.9848783141969233
H -1.3328450741206255 1.5521135995503612 -3.9848783141969233
H -2.5258564131320664 2.4030803175897466 -3.9848783141969233
O 1.4723345847096705 0.878706102837788 6.3283894222577795
H 2.3723345847096704 0.878706102837788 6.3283894222577795
H 1.1793232456982294 1.7296728208771732 6.3283894222577795
O -3.2985781879062994 -1.5425860489957157 5.62876747130516
H -2.3985781879062995 -1.5425860489957157 5.62876747130516
H -3.5915895269177405 -0.6916193309563305 5.62876747130516
O -0.26264346628521434 5.3549043836395 4.9291455203525425
H 0.6373565337147857 5.3549043836395 4.9291455203525425
H -0.5556548052966553 6.205871101678885 4.9291455203525425
O 2.4798257251193525 -3.2107482863921115 4.229523569399923
H 3.3798257251193524 -3.2107482863921115 4.229523569399923
H 2.1868143861079115 -2.3597815683527266 4.229523569399923
O -6.220462033233384 1.8630726233552783 3.5299016184473038
H -5.320462033233384 1.8630726233552783 3.5299016184473038
H -6.5134733722448255 2.7140393413946633 3.5299016184473038
O 4.431124288744132 4.114388981675977 2.830279667494685
H 5.331124288744133 4.114388981675977 2.830279667494685
H 4.138112949732691 4.965355699715362 2.830279667494685
O -2.2926269662575742 -5.211389673194725 2.1306577165420664
H -1.3926269662575743 -5.211389673194725 2.1306577165420664
H -2.5856383052690153 -4.36042295515534 2.1306577165420664
O -3.650203084395617 6.6448583366411915 1.4310357655894477
H -2.750203084395617 6.6448583366411915 1.4310357655894477
H -3.943214423407058 7.4958250546805765 1.4310357655894477
O 5.552946340569784 -1.3886021557714174 0.7314138146368299
H 6.452946340569785 -1.3886021557714174 0.7314138146368299
H 5.259935001558343 -0.5376354377320323 0.7314138146368299
O -6.799060702330108 -1.6572736666713792 0.031791863684210594
H -5.899060702330107 -1.6572736666713792 0.031791863684210594
H -7.092072041341549 -0.806306948631994 0.031791863684210594
O 2.1459207099156776 6.86514206498565 -0.6678300872684089
H 3.0459207099156775 6.86514206498565 -0.6678300872684089
H 1.8529093709042366 7.716108783025035 -0.6678300872684089
O 1.2890995828755338 -5.320928030728263 -1.3674520382210265
H 2.1890995828755337 -5.320928030728263 -1.3674520382210265
H 0.9960882438640928 -4.469961312688878 -1.3674520382210265
O -6.1117700562188375 4.040736264278647 -2.0670739891736467
H -5.211770056218837 4.040736264278647 -2.0670739891736467
H -6.404781395230279 4.891702982318032 -2.0670739891736467
O 5.232439806810841 2.173149307181264 -2.7666959401262656
H 6.132439806810841 2.173149307181264 -2.7666959401262656
H 4.9394284677994 3.024116025220649 -2.7666959401262656
O -3.905751287607376 -3.7444667704023296 -3.466317891078885
H -3.005751287607376 -3.7444667704023296 -3.466317891078885
H -4.198762626618817 -2.8935000523629446 -3.466317891078885
O -1.317702906455314 5.989015200565157 -4.165939842031502
H -0.41770290645531405 5.989015200565157 -4.165939842031502
H -1.6107142454667551 6.839981918604542 -4.165939842031502
O 2.7803938394062295 -2.017054121579238 -4.8655617929841215
H 3.6803938394062294 -2.017054121579238 -4.8655617929841215
H 2.4873825003947885 -1.166087403539853 -4.8655617929841215
O -4.23691738684161 0.7306025265874531 -5.565183743936738
H -3.3369173868416104 0.7306025265874531 -5.565183743936738
H -4.529928725853051 1.5815692446268383 -5.565183743936738
O 0.8527768351029864 2.379625599665776 -6.2648056948893585
H 1.7527768351029864 2.379625599665776 -6.2648056948893585
H 0.5597654960915455 3.2305923177051614 -6.2648056948893585
