92
Molecule with added oxygen and hydrogen atoms
C        -3.28567529722872   -1.17052238102953   13.89407364001206
C        -7.16650376250803    0.43706351278929   14.30895861785457
C        -5.73188261271530    1.91829608558012   11.28655253622240
H        -6.76688854679717    1.76495529165153   11.55196933438609
C        -5.28403086888442    3.13522678965075   10.85705705314200
H        -5.96585393533098    3.96766568706907   10.77731529767120
C        -3.92583451013775    3.30470911527997   10.51743270997686
C        -3.37418365453670    4.52130225823214   10.06942338053694
H        -4.01702533501163    5.38373277963134    9.97609685291490
C        -2.04382334164770    4.59778306240885    9.76079867303274
H        -1.61999036978045    5.52979528196739    9.41798581058271
C        -1.21074000853642    3.47180560321905    9.88381238013008
H        -0.16470199927704    3.56140610257971    9.63300157327496
C        -1.71530701342877    2.27723925361452   10.31555990351412
H        -1.08461286975862    1.40690244183658   10.41405655140900
C        -3.08405638642141    2.16776106661667   10.64250153341787
C        -3.65856278632955    0.96503278139195   11.09527163890535
H        -3.03540933779843    0.08706358828769   11.19791121431628
N        -4.23955042664822   -1.14518653489222   13.20540045271957
N        -6.58896417028275   -0.08601943623543   13.42707330259902
N        -4.92782969525446    0.83847784799930   11.40827141395806
S        -1.99679258766942   -1.21871888602004   14.80476097301663
S        -7.95877140167130    1.14531381092367   15.47683273504503
Fe       -5.68861645330940   -0.96640491308876   12.09293520585890
N        -7.13677187645659   -0.78605679701405   10.98042516560204
C        -8.08957241649068   -0.75666113884781   10.29040760210751
S        -9.37580489947227   -0.69882926165624    9.37660420217689
N        -4.78702431247744   -1.84717569658699   10.75998291279227
C        -4.19860219259891   -2.36926877522935    9.88469892133215
S        -3.39205138601357   -3.07649106538553    8.72597556164282
N        -6.44896333525371   -2.77086188977583   12.77825225321226
C        -5.64430860135963   -3.85008658596215   12.90140836922615
H        -4.60963430696517   -3.69683049012067   12.63466461145355
C        -6.09112684055660   -5.06632713617034   13.33388904293531
H        -5.40881055013147   -5.89825254751571   13.41474694153565
C        -7.44886948349466   -5.23574119070029   13.67533867920124
C        -7.99924908609429   -6.45156564499591   14.12698245950112
H        -7.35572524064062   -7.31332421399508   14.22181210784974
C        -9.32921466363876   -6.52813757183921   14.43725652214472
H        -9.75206658965128   -7.45953227857975   14.78295003510176
C       -10.16313422792153   -5.40300233802131   14.31221000626299
H       -11.20884028855900   -5.49263146419339   14.56440463525313
C        -9.65979396128749   -4.20920243739520   13.87690442525437
H       -10.29121265574171   -3.33955298795776   13.77696434003866
C        -8.29142939111206   -4.09957685604572   13.54833397053569
C        -7.71795733822771   -2.89751137710879   13.09240966847238
H        -8.34162898488907   -2.02006046436480   12.98832478186990O -2.9228432023189836 1.9339592710772542 6.216898101067833
H -2.0228432023189837 1.9339592710772542 6.216898101067833
H -3.2158545413304247 2.7849259891166396 6.216898101067833
O -3.480570328559958 2.093148132372945 6.0637986921911535
H -2.580570328559958 2.093148132372945 6.0637986921911535
H -3.773581667571399 2.94411485041233 6.0637986921911535
O -3.2225156833254482 0.9002025682110967 5.688459678673923
H -2.3225156833254483 0.9002025682110967 5.688459678673923
H -3.5155270223368893 1.751169286250482 5.688459678673923
O -1.0803593963593388 1.1863234394904483 7.1200552916248645
H -0.18035939635933873 1.1863234394904483 7.1200552916248645
H -1.3733707353707798 2.0372901575298332 7.1200552916248645
O -5.024934562316566 0.6958876936900703 5.210372926943684
H -4.124934562316565 0.6958876936900703 5.210372926943684
H -5.317945901328007 1.5468544117294556 5.210372926943684
O -1.7902340691917176 -0.0066439996224677556 6.221725891384813
H -0.8902340691917175 -0.0066439996224677556 6.221725891384813
H -2.0832454082031586 0.8443227184169174 6.221725891384813
O -2.0883265232087536 0.4076565141517102 6.114754450688291
H -1.1883265232087536 0.4076565141517102 6.114754450688291
H -2.3813378622201946 1.2586232321910953 6.114754450688291
O -4.263311874262138 -0.559079284707598 5.137666853157831
H -3.363311874262138 -0.559079284707598 5.137666853157831
H -4.556323213273579 0.2918874333317871 5.137666853157831
O -0.6725719376693915 -0.8435506134310256 7.051020104123264
H 0.22742806233060853 -0.8435506134310256 7.051020104123264
H -0.9655832766808325 0.007416104608359619 7.051020104123264
O -4.822702136400864 -1.2835952350340856 5.041792537884347
H -3.9227021364008645 -1.2835952350340856 5.041792537884347
H -5.1157134754123055 -0.4326285169947004 5.041792537884347
O -2.669504581561077 -1.432743032414752 5.67049268886543
H -1.769504581561077 -1.432743032414752 5.67049268886543
H -2.962515920572518 -0.5817763143753669 5.67049268886543
O -1.164435601399104 -2.202598438165671 6.745605755936244
H -0.26443560139910394 -2.202598438165671 6.745605755936244
H -1.457446940410545 -1.3516317201262857 6.745605755936244
O -4.367789037225561 -2.257998713317135 5.225845062981772
H -3.4677890372255615 -2.257998713317135 5.225845062981772
H -4.6608003762370025 -1.4070319952777497 5.225845062981772
O -1.9069159516796548 -2.495509612124819 6.266715991900436
H -1.0069159516796549 -2.495509612124819 6.266715991900436
H -2.199927290691096 -1.6445428940854339 6.266715991900436
O -2.789192229770639 -3.0211235811671555 5.932621997312954
H -1.889192229770639 -3.0211235811671555 5.932621997312954
H -3.08220356878208 -2.1701568631277706 5.932621997312954
