496

Fe 0.22182553372704 1.25423189520001 8.97023960345718
P 0.29728841178802 -0.5781851912837 7.8608019133765
P 0.78231899259766 0.23960398192213 10.82784754202699
P 2.28617275855871 1.70772610724596 8.47453086202248
O 0.91202928518459 -0.68627812297779 6.36254144591944
O 1.22786342450592 -1.66740943147579 8.57623670227271
O -1.16921256828741 -1.23266030958845 7.64788613953567
C -0.16727761443828 -1.27271614408431 11.20826488570636
C -1.71079922365344 -3.52109485260812 11.77483305928478
H -2.3038659722741 -4.39654326358675 11.99092018469336
C 4.09629934069869 5.49971480754976 10.33836078199616
H 4.5264689247983 6.3802124121942 10.79002521026768
C 0.43539635990647 1.1830488564995 12.35387149238563
C 2.99819804925612 4.88752714572206 10.92031766076091
H 2.57143095952969 5.28494762382426 11.82900117671208
C 0.26731218600117 -2.20756365027296 12.1443069814431
H 1.19835842800378 -2.06856306033084 12.67143487011446
C -2.1613223403884 -2.58152217506143 10.86289998166315
H -3.1122705941094 -2.71716564123887 10.36912620253654
C -0.86349553452079 1.17681430715145 12.85679420587469
H -1.61912388801596 0.5773211500709 12.37009684733281
C 2.98632890341233 3.24334524356357 9.16393416650923
C 2.66220423110719 1.90626717727847 6.7049141729385
C 2.44484054963537 3.76464958908088 10.33243909416391
H 1.58616716211112 3.2773419935057 10.77114757875981
C 4.64364908031553 4.98108057419784 9.17522900713883
H 5.50101284486163 5.4563894435772 8.72350680688654
C -0.49962624469895 -3.32611961280104 12.41807896877847
H -0.1512623986602 -4.04751805150912 13.14183835006078
C 1.40706126259488 1.93645691985229 13.00491692263437
H 2.42345436062976 1.95167319007715 12.6424834136391
C -0.27599914700234 3.29282257192753 8.64953749119469
H 0.37451307837832 4.14123948676475 8.52392407468996
C 4.09760883876023 3.85331609720781 8.58960095410584
H 4.52786085487612 3.45090272214142 7.68313722739658
C -0.21239634711844 2.66206795594173 14.62294096624687
H -0.46246436046485 3.23546638362138 15.50206614399797
C 3.58709908298142 1.16124020843225 4.61357256555956
H 4.13082551774455 0.42107441600655 4.04611639855487
C 2.44337910782686 3.26587520648205 4.72444647429052
H 2.09427307619658 4.16869789356721 4.24644095440512
C -1.39501334268619 -1.46338029488218 10.58601096616324
H -1.7415164669196 -0.73050421725847 9.875676030596
C 1.72746961518733 -2.88786265516744 8.01930747447225
H 1.07080185032579 -3.71642706901491 8.2854390209877
H 2.71115930639031 -3.05699666364189 8.45913070834408
H 1.82342976608612 -2.8190114048769 6.93685344182488
C 1.08240516048579 2.67004105955512 14.13279873355108
H 1.84633407927169 3.24775414410695 14.63125573243333
C 2.20602737279195 3.06141813854202 6.07059441435496
H 1.68153359781914 3.81032426923246 6.64668755291422
C -1.74032103163096 1.59617680292542 8.20761003179307
H -2.38648174090692 0.91974843548094 7.67795513939949
C -1.18422548107082 1.9079767857447 13.98472894277032
H -2.19289597069955 1.88834973477417 14.36880398320797
C -0.82875037354899 2.86606804111863 9.87112249768649
H -0.70319895277811 3.34174387859877 10.82819651996998
C 0.26568710017225 -0.03227478883217 5.28209840650579
H -0.81954212204196 -0.1009523202839 5.37103459344022
H 0.5907136796601 -0.5330179888668 4.3706618235734
H 0.56274207629397 1.0152046893004 5.24132842793913
C 3.13387542114994 2.31269177660045 3.99184217945972
H 3.32197019994277 2.47098999132936 2.94126062949509
C 3.64639066821544 0.45707508398971 10.54466933518611
H 4.58933777388778 -0.00974562624349 10.84479703460273
H 3.64317929108701 1.47058031168433 10.95323945654409
C 3.59449099278527 0.53621194269158 9.02333336362916
H 3.39621163974046 -0.45071419176609 8.60308438960449
H 4.54867487087968 0.91096585267627 8.63560480762983
C -0.80773560863373 2.48425126188105 7.61668686138824
H -0.67020118285357 2.63958341054239 6.56112388334501
C 3.35359752579917 0.95430810612315 5.96245208698222
H 3.70876684932371 0.04924843452355 6.42933778180095
C 2.50622407582551 -0.36978482052663 11.13054891889213
H 2.63625498022801 -0.43870740628879 12.21540469464943
H 2.5449234966079 -1.37881476210779 10.71132230495754
C -1.74372278121957 1.8179502388445 9.59480527800235
H -2.42572250378498 1.38686532234918 10.30500680663488
C -1.41311378039817 -2.49372768236913 7.02919435286177
H -0.67436360497828 -2.71696661448921 6.25781198885896
H -2.40337561649134 -2.4364146811996 6.5764304287805
H -1.40704520166844 -3.28114037860158 7.78423949344398
O 1.2891564798472201 -5.684556734252515 8.004749020135748
O -3.1902097829062086 -5.919599604242594 12.936802858465422
O 1.2891564798472201 -5.684556734252515 8.004749020135748
O -4.188082938444026 1.8561944244774586 11.125869701547204
O -0.3868821874393775 -5.5117387039553485 14.483680813275294
O 5.308469967202446 0.3672487650976923 2.4304876200400627
O 3.711395737853301 -4.776424193901436 8.251534828424122
O 0.02271074715797683 -1.6793032636265517 9.593714020138949
O -4.188082938444026 1.8561944244774586 11.125869701547204
O -0.3868821874393775 -5.5117387039553485 14.483680813275294
O 1.2891564798472201 -5.684556734252515 8.004749020135748
O -4.188082938444026 1.8561944244774586 11.125869701547204
O -0.49939794774870183 -1.2409265057974255 9.783690509832377
O 1.2891564798472201 -5.684556734252515 8.004749020135748
O -4.188082938444026 1.8561944244774586 11.125869701547204
O -0.49939794774870183 -1.2409265057974255 9.783690509832377
O -2.29797900021045 -5.0016169589454975 7.2880567618786785
O -4.227219654924401 1.1278976870258115 6.924060039946069
O 1.2891564798472201 -5.684556734252515 8.004749020135748
O -4.188082938444026 1.8561944244774586 11.125869701547204
O 1.2891564798472201 -5.684556734252515 8.004749020135748
O -4.188082938444026 1.8561944244774586 11.125869701547204
O 1.2891564798472201 -5.684556734252515 8.004749020135748
O -3.1902097829062086 -5.919599604242594 12.936802858465422
O -4.188082938444026 1.8561944244774586 11.125869701547204
O -0.3868821874393775 -5.5117387039553485 14.483680813275294
O -0.8684112095790714 -0.6824965118494424 13.280954888211177
O -1.422168039636837 4.871116510266546 11.89782393437516
O 0.8058275595219349 0.6840294956195025 10.315313921167265
O 3.711395737853301 -4.776424193901436 8.251534828424122
O 0.02271074715797683 -1.6793032636265517 9.593714020138949
O -1.422168039636837 4.871116510266546 11.89782393437516
O 0.8058275595219349 0.6840294956195025 10.315313921167265
O 3.711395737853301 -4.776424193901436 8.251534828424122
O 0.02271074715797683 -1.6793032636265517 9.593714020138949
O 3.711395737853301 -4.776424193901436 8.251534828424122
O -4.227219654924401 1.1278976870258115 6.924060039946069
O 2.4210668657663925 -4.47240398008632 5.983374082148901
O -1.4225183333829963 3.8637626768835815 5.169935891418819
O 2.124949170134138 1.9804595646643754 8.147962704426952
O 6.371604357432734 -0.2740329494550438 11.712943356353085
O 3.711395737853301 -4.776424193901436 8.251534828424122
O 6.371604357432734 -0.2740329494550438 11.712943356353085
O 3.711395737853301 -4.776424193901436 8.251534828424122
O 1.269509844710932 -0.6668208501113151 6.785808509638327
O -1.4225183333829963 3.8637626768835815 5.169935891418819
O -2.29797900021045 -5.0016169589454975 7.2880567618786785
O -4.227219654924401 1.1278976870258115 6.924060039946069
O -2.29797900021045 -5.0016169589454975 7.2880567618786785
O -3.1902097829062086 -5.919599604242594 12.936802858465422
O -3.080889850733337 2.3043849270300067 16.111899387317337
O -4.188082938444026 1.8561944244774586 11.125869701547204
O -3.080889850733337 2.3043849270300067 16.111899387317337
O 2.235024265682994 4.074790192287254 16.410281115613078
O 0.9400793815282538 -0.659942633976379 15.45874403756354
O -0.3868821874393775 -5.5117387039553485 14.483680813275294
O -3.080889850733337 2.3043849270300067 16.111899387317337
O 2.235024265682994 4.074790192287254 16.410281115613078
O 0.9400793815282538 -0.659942633976379 15.45874403756354
O -0.3868821874393775 -5.5117387039553485 14.483680813275294
O -3.080889850733337 2.3043849270300067 16.111899387317337
O -1.422168039636837 4.871116510266546 11.89782393437516
O -0.9406390174971432 0.04187431816064002 13.100549859439276
O -0.3868821874393775 -5.5117387039553485 14.483680813275294
O -3.080889850733337 2.3043849270300067 16.111899387317337
O -1.422168039636837 4.871116510266546 11.89782393437516
O 2.235024265682994 4.074790192287254 16.410281115613078
O -3.080889850733337 2.3043849270300067 16.111899387317337
O -1.422168039636837 4.871116510266546 11.89782393437516
O 2.235024265682994 4.074790192287254 16.410281115613078
O -3.080889850733337 2.3043849270300067 16.111899387317337
O -3.1902097829062086 -5.919599604242594 12.936802858465422
O -3.080889850733337 2.3043849270300067 16.111899387317337
O -4.188082938444026 1.8561944244774586 11.125869701547204
O -0.3868821874393775 -5.5117387039553485 14.483680813275294
O 2.235024265682994 4.074790192287254 16.410281115613078
O 3.243747200213559 6.883537361082281 12.825244984444925
O -1.422168039636837 4.871116510266546 11.89782393437516
O 5.610392303718309 7.978126503239538 11.311351083661073
O 6.371604357432734 -0.2740329494550438 11.712943356353085
O 2.235024265682994 4.074790192287254 16.410281115613078
O 3.243747200213559 6.883537361082281 12.825244984444925
O -1.422168039636837 4.871116510266546 11.89782393437516
O 0.25215661316054383 6.1265204884986355 8.314906755852716
O 1.7642296281468655 1.3607185754522177 8.287206161034495
O 3.711395737853301 -4.776424193901436 8.251534828424122
O 1.269509844710932 -0.6668208501113151 6.785808509638327
O -1.422168039636837 4.871116510266546 11.89782393437516
O 0.8058275595219349 0.6840294956195025 10.315313921167265
O 3.711395737853301 -4.776424193901436 8.251534828424122
O 2.1993227228669796 -0.01062228085501804 8.279235423242342
O 0.25215661316054383 6.1265204884986355 8.314906755852716
O 1.7642296281468655 1.3607185754522177 8.287206161034495
O 3.711395737853301 -4.776424193901436 8.251534828424122
O -4.227219654924401 1.1278976870258115 6.924060039946069
O -1.422168039636837 4.871116510266546 11.89782393437516
O 0.8058275595219349 0.6840294956195025 10.315313921167265
O 3.711395737853301 -4.776424193901436 8.251534828424122
O 2.1993227228669796 -0.01062228085501804 8.279235423242342
O 0.25215661316054383 6.1265204884986355 8.314906755852716
O 6.371604357432734 -0.2740329494550438 11.712943356353085
O 5.308469967202446 0.3672487650976923 2.4304876200400627
O -1.4225183333829963 3.8637626768835815 5.169935891418819
O 2.124949170134138 1.9804595646643754 8.147962704426952
O 6.371604357432734 -0.2740329494550438 11.712943356353085
O 0.25215661316054383 6.1265204884986355 8.314906755852716
O 3.243747200213559 6.883537361082281 12.825244984444925
O 6.371604357432734 -0.2740329494550438 11.712943356353085
O 0.25215661316054383 6.1265204884986355 8.314906755852716
O 3.243747200213559 6.883537361082281 12.825244984444925
O 0.25215661316054383 6.1265204884986355 8.314906755852716
O -4.227219654924401 1.1278976870258115 6.924060039946069
O -4.188082938444026 1.8561944244774586 11.125869701547204
O 0.25215661316054383 6.1265204884986355 8.314906755852716
O 2.5892720333832977 5.351713065800887 2.7116930485101527
O 5.308469967202446 0.3672487650976923 2.4304876200400627
O 0.25215661316054383 6.1265204884986355 8.314906755852716
O 0.25215661316054383 6.1265204884986355 8.314906755852716
O 5.610392303718309 7.978126503239538 11.311351083661073
O 0.25215661316054383 6.1265204884986355 8.314906755852716
O 2.5892720333832977 5.351713065800887 2.7116930485101527
O 5.610392303718309 7.978126503239538 11.311351083661073
O 0.5893771528845494 -1.011537821650959 2.428751170806801
O 2.4210668657663925 -4.47240398008632 5.983374082148901
O -1.4225183333829963 3.8637626768835815 5.169935891418819
O 0.5893771528845494 -1.011537821650959 2.428751170806801
O -1.4225183333829963 3.8637626768835815 5.169935891418819
O 0.5893771528845494 -1.011537821650959 2.428751170806801
O 4.122136467009824 3.024816491266267 1.1939741180678392
O -1.5516382780296774 -0.45508859386140593 3.5438447515998477
O 2.4210668657663925 -4.47240398008632 5.983374082148901
O 0.5893771528845494 -1.011537821650959 2.428751170806801
O 2.4210668657663925 -4.47240398008632 5.983374082148901
O 0.5893771528845494 -1.011537821650959 2.428751170806801
O 2.5892720333832977 5.351713065800887 2.7116930485101527
O 0.5893771528845494 -1.011537821650959 2.428751170806801
O 2.5892720333832977 5.351713065800887 2.7116930485101527
O -1.5516382780296774 -0.45508859386140593 3.5438447515998477
H 1.3624953209072956 -6.408911231930814 8.615021071015668
H 1.3624953209072956 -6.010486039618177 7.115428210587347
H -3.434513591446889 -6.006991891075681 13.850683724516681
H -3.434513591446889 -6.708006008801055 12.466450872837937
H 1.3624953209072956 -6.408911231930814 8.615021071015668
H 1.3624953209072956 -6.010486039618177 7.115428210587347
H -4.927578646793125 1.9993212569498904 10.546938956846533
H -4.457363386266962 1.9993212569498904 12.025593409274576
H -0.4435961351658105 -5.455403558252 15.430311617491945
H -0.4435961351658105 -6.421533895656392 14.216180837030537
H 6.258201952739127 0.3558356345030793 2.4110223664177024
H 4.9729126277534395 0.3558356345030793 1.5417970032380541
H 3.992704055139351 -5.429871205576763 8.881116144505116
H 3.992704055139351 -5.03289453934309 7.3811391755542735
H -0.07315900956934773 -2.2422912594377165 10.352893515592804
H -0.07315900956934773 -2.1955069947532095 8.801980038478467
H -4.927578646793125 1.9993212569498904 10.546938956846533
H -4.457363386266962 1.9993212569498904 12.025593409274576
H -0.4435961351658105 -5.455403558252 15.430311617491945
H -0.4435961351658105 -6.421533895656392 14.216180837030537
H 1.3624953209072956 -6.408911231930814 8.615021071015668
H 1.3624953209072956 -6.010486039618177 7.115428210587347
H -4.927578646793125 1.9993212569498904 10.546938956846533
H -4.457363386266962 1.9993212569498904 12.025593409274576
H -0.7491488221340706 -1.6748019518026946 10.591079262601124
H -0.7491488221340706 -1.7809684379897037 9.043096685784556
H 1.3624953209072956 -6.408911231930814 8.615021071015668
H 1.3624953209072956 -6.010486039618177 7.115428210587347
H -4.927578646793125 1.9993212569498904 10.546938956846533
H -4.457363386266962 1.9993212569498904 12.025593409274576
H -0.7491488221340706 -1.6748019518026946 10.591079262601124
H -0.7491488221340706 -1.7809684379897037 9.043096685784556
H -2.522987303173417 -5.766319221465611 7.804875601796831
H -2.522987303173417 -5.156399772013916 6.3781592157910145
H -4.3031473064498345 1.1864278616904942 5.978909676042233
H -5.090710938126649 1.1864278616904942 7.315795949057624
H 1.3624953209072956 -6.408911231930814 8.615021071015668
H 1.3624953209072956 -6.010486039618177 7.115428210587347
H -4.927578646793125 1.9993212569498904 10.546938956846533
H -4.457363386266962 1.9993212569498904 12.025593409274576
H 1.3624953209072956 -6.408911231930814 8.615021071015668
H 1.3624953209072956 -6.010486039618177 7.115428210587347
H -4.927578646793125 1.9993212569498904 10.546938956846533
H -4.457363386266962 1.9993212569498904 12.025593409274576
H 1.3624953209072956 -6.408911231930814 8.615021071015668
H 1.3624953209072956 -6.010486039618177 7.115428210587347
H -3.434513591446889 -6.006991891075681 13.850683724516681
H -3.434513591446889 -6.708006008801055 12.466450872837937
H -4.927578646793125 1.9993212569498904 10.546938956846533
H -4.457363386266962 1.9993212569498904 12.025593409274576
H -0.4435961351658105 -5.455403558252 15.430311617491945
H -0.4435961351658105 -6.421533895656392 14.216180837030537
H -1.774300653641459 -0.8498527649563723 13.513024273702559
H -0.3123299141780067 -0.8498527649563723 14.032796279364312
H -1.6161413580317907 5.68315340785093 11.444535473555364
H -1.6161413580317907 4.9699754900194515 12.822540785023543
H 0.41306807046975386 0.7799083637320916 11.17499248110052
H 1.7484172813766117 0.7799083637320916 10.384825495047961
H 3.992704055139351 -5.429871205576763 8.881116144505116
H 3.992704055139351 -5.03289453934309 7.3811391755542735
H -0.07315900956934773 -2.2422912594377165 10.352893515592804
H -0.07315900956934773 -2.1955069947532095 8.801980038478467
H -1.6161413580317907 5.68315340785093 11.444535473555364
H -1.6161413580317907 4.9699754900194515 12.822540785023543
H 0.41306807046975386 0.7799083637320916 11.17499248110052
H 1.7484172813766117 0.7799083637320916 10.384825495047961
H 3.992704055139351 -5.429871205576763 8.881116144505116
H 3.992704055139351 -5.03289453934309 7.3811391755542735
H -0.07315900956934773 -2.2422912594377165 10.352893515592804
H -0.07315900956934773 -2.1955069947532095 8.801980038478467
H 3.992704055139351 -5.429871205576763 8.881116144505116
H 3.992704055139351 -5.03289453934309 7.3811391755542735
H -4.3031473064498345 1.1864278616904942 5.978909676042233
H -5.090710938126649 1.1864278616904942 7.315795949057624
H 2.588990174918609 -5.351887552851917 6.300880629292152
H 2.588990174918609 -4.435093774256192 5.049077710121116
H -1.5942657804075877 3.548781427684597 4.290282762569963
H -1.5942657804075877 4.797174354974917 5.211714518050782
H 2.9871159525433644 2.2719537012320083 8.420358753694947
H 1.9577128960514392 2.2719537012320083 7.259389017568273
H 6.632764504355945 -0.34509268114999325 12.623572749789563
H 7.13841371944248 -0.34509268114999325 11.156657533357704
H 3.992704055139351 -5.429871205576763 8.881116144505116
H 3.992704055139351 -5.03289453934309 7.3811391755542735
H 6.632764504355945 -0.34509268114999325 12.623572749789563
H 7.13841371944248 -0.34509268114999325 11.156657533357704
H 3.992704055139351 -5.429871205576763 8.881116144505116
H 3.992704055139351 -5.03289453934309 7.3811391755542735
H 1.4137028397214457 -1.5873983728428238 6.6007533696626535
H 1.4137028397214457 -0.15830232218052187 5.996430724961689
H -1.5942657804075877 3.548781427684597 4.290282762569963
H -1.5942657804075877 4.797174354974917 5.211714518050782
H -2.522987303173417 -5.766319221465611 7.804875601796831
H -2.522987303173417 -5.156399772013916 6.3781592157910145
H -4.3031473064498345 1.1864278616904942 5.978909676042233
H -5.090710938126649 1.1864278616904942 7.315795949057624
H -2.522987303173417 -5.766319221465611 7.804875601796831
H -2.522987303173417 -5.156399772013916 6.3781592157910145
H -3.434513591446889 -6.006991891075681 13.850683724516681
H -3.434513591446889 -6.708006008801055 12.466450872837937
H -4.01709122901895 2.431930429129295 16.21068766693774
H -2.653228062884344 2.431930429129295 16.950551603738447
H -4.927578646793125 1.9993212569498904 10.546938956846533
H -4.457363386266962 1.9993212569498904 12.025593409274576
H -4.01709122901895 2.431930429129295 16.21068766693774
H -2.653228062884344 2.431930429129295 16.950551603738447
H 2.3622423242504595 5.009367338379337 16.523776153287425
H 2.3622423242504595 3.634093884913759 17.242207993554697
H 0.988169411762629 -0.011955216112247369 16.15178058442224
H 0.988169411762629 -1.5309048875208933 15.83505787187304
H -0.4435961351658105 -5.455403558252 15.430311617491945
H -0.4435961351658105 -6.421533895656392 14.216180837030537
H -4.01709122901895 2.431930429129295 16.21068766693774
H -2.653228062884344 2.431930429129295 16.950551603738447
H 2.3622423242504595 5.009367338379337 16.523776153287425
H 2.3622423242504595 3.634093884913759 17.242207993554697
H 0.988169411762629 -0.011955216112247369 16.15178058442224
H 0.988169411762629 -1.5309048875208933 15.83505787187304
H -0.4435961351658105 -5.455403558252 15.430311617491945
H -0.4435961351658105 -6.421533895656392 14.216180837030537
H -4.01709122901895 2.431930429129295 16.21068766693774
H -2.653228062884344 2.431930429129295 16.950551603738447
H -1.6161413580317907 5.68315340785093 11.444535473555364
H -1.6161413580317907 4.9699754900194515 12.822540785023543
H -1.8617924718354937 -0.0326068408027351 13.320615464475585
H -0.4187616769797935 -0.0326068408027351 13.890864099734875
H -0.4435961351658105 -5.455403558252 15.430311617491945
H -0.4435961351658105 -6.421533895656392 14.216180837030537
H -4.01709122901895 2.431930429129295 16.21068766693774
H -2.653228062884344 2.431930429129295 16.950551603738447
H -1.6161413580317907 5.68315340785093 11.444535473555364
H -1.6161413580317907 4.9699754900194515 12.822540785023543
H 2.3622423242504595 5.009367338379337 16.523776153287425
H 2.3622423242504595 3.634093884913759 17.242207993554697
H -4.01709122901895 2.431930429129295 16.21068766693774
H -2.653228062884344 2.431930429129295 16.950551603738447
H -1.6161413580317907 5.68315340785093 11.444535473555364
H -1.6161413580317907 4.9699754900194515 12.822540785023543
H 2.3622423242504595 5.009367338379337 16.523776153287425
H 2.3622423242504595 3.634093884913759 17.242207993554697
H -4.01709122901895 2.431930429129295 16.21068766693774
H -2.653228062884344 2.431930429129295 16.950551603738447
H -3.434513591446889 -6.006991891075681 13.850683724516681
H -3.434513591446889 -6.708006008801055 12.466450872837937
H -4.01709122901895 2.431930429129295 16.21068766693774
H -2.653228062884344 2.431930429129295 16.950551603738447
H -4.927578646793125 1.9993212569498904 10.546938956846533
H -4.457363386266962 1.9993212569498904 12.025593409274576
H -0.4435961351658105 -5.455403558252 15.430311617491945
H -0.4435961351658105 -6.421533895656392 14.216180837030537
H 2.3622423242504595 5.009367338379337 16.523776153287425
H 2.3622423242504595 3.634093884913759 17.242207993554697
H 3.446927843409271 7.685803916263737 12.358783838509
H 3.446927843409271 6.992418350228169 13.746853663024499
H -1.6161413580317907 5.68315340785093 11.444535473555364
H -1.6161413580317907 4.9699754900194515 12.822540785023543
H 5.919383733411773 8.588523484367506 10.65223059254746
H 5.919383733411773 8.25202744142216 12.166922572455942
H 6.632764504355945 -0.34509268114999325 12.623572749789563
H 7.13841371944248 -0.34509268114999325 11.156657533357704
H 2.3622423242504595 5.009367338379337 16.523776153287425
H 2.3622423242504595 3.634093884913759 17.242207993554697
H 3.446927843409271 7.685803916263737 12.358783838509
H 3.446927843409271 6.992418350228169 13.746853663024499
H -1.6161413580317907 5.68315340785093 11.444535473555364
H -1.6161413580317907 4.9699754900194515 12.822540785023543
H 0.23625712950323274 6.477282360734287 7.432176154023839
H 0.23625712950323274 6.841284285742847 8.9404944160319
H 2.6719186138187636 1.5739457027919377 8.469236096639525
H 1.5634779619937846 1.5739457027919377 7.383473368278134
H 3.992704055139351 -5.429871205576763 8.881116144505116
H 3.992704055139351 -5.03289453934309 7.3811391755542735
H 1.4137028397214457 -1.5873983728428238 6.6007533696626535
H 1.4137028397214457 -0.15830232218052187 5.996430724961689
H -1.6161413580317907 5.68315340785093 11.444535473555364
H -1.6161413580317907 4.9699754900194515 12.822540785023543
H 0.41306807046975386 0.7799083637320916 11.17499248110052
H 1.7484172813766117 0.7799083637320916 10.384825495047961
H 3.992704055139351 -5.429871205576763 8.881116144505116
H 3.992704055139351 -5.03289453934309 7.3811391755542735
H 3.095331795588149 -0.14274233771236436 8.565961829730062
H 2.1441472579721603 -0.14274233771236436 7.3400868947072375
H 0.23625712950323274 6.477282360734287 7.432176154023839
H 0.23625712950323274 6.841284285742847 8.9404944160319
H 2.6719186138187636 1.5739457027919377 8.469236096639525
H 1.5634779619937846 1.5739457027919377 7.383473368278134
H 3.992704055139351 -5.429871205576763 8.881116144505116
H 3.992704055139351 -5.03289453934309 7.3811391755542735
H -4.3031473064498345 1.1864278616904942 5.978909676042233
H -5.090710938126649 1.1864278616904942 7.315795949057624
H -1.6161413580317907 5.68315340785093 11.444535473555364
H -1.6161413580317907 4.9699754900194515 12.822540785023543
H 0.41306807046975386 0.7799083637320916 11.17499248110052
H 1.7484172813766117 0.7799083637320916 10.384825495047961
H 3.992704055139351 -5.429871205576763 8.881116144505116
H 3.992704055139351 -5.03289453934309 7.3811391755542735
H 3.095331795588149 -0.14274233771236436 8.565961829730062
H 2.1441472579721603 -0.14274233771236436 7.3400868947072375
H 0.23625712950323274 6.477282360734287 7.432176154023839
H 0.23625712950323274 6.841284285742847 8.9404944160319
H 6.632764504355945 -0.34509268114999325 12.623572749789563
H 7.13841371944248 -0.34509268114999325 11.156657533357704
H 6.258201952739127 0.3558356345030793 2.4110223664177024
H 4.9729126277534395 0.3558356345030793 1.5417970032380541
H -1.5942657804075877 3.548781427684597 4.290282762569963
H -1.5942657804075877 4.797174354974917 5.211714518050782
H 2.9871159525433644 2.2719537012320083 8.420358753694947
H 1.9577128960514392 2.2719537012320083 7.259389017568273
H 6.632764504355945 -0.34509268114999325 12.623572749789563
H 7.13841371944248 -0.34509268114999325 11.156657533357704
H 0.23625712950323274 6.477282360734287 7.432176154023839
H 0.23625712950323274 6.841284285742847 8.9404944160319
H 3.446927843409271 7.685803916263737 12.358783838509
H 3.446927843409271 6.992418350228169 13.746853663024499
H 6.632764504355945 -0.34509268114999325 12.623572749789563
H 7.13841371944248 -0.34509268114999325 11.156657533357704
H 0.23625712950323274 6.477282360734287 7.432176154023839
H 0.23625712950323274 6.841284285742847 8.9404944160319
H 3.446927843409271 7.685803916263737 12.358783838509
H 3.446927843409271 6.992418350228169 13.746853663024499
H 0.23625712950323274 6.477282360734287 7.432176154023839
H 0.23625712950323274 6.841284285742847 8.9404944160319
H -4.3031473064498345 1.1864278616904942 5.978909676042233
H -5.090710938126649 1.1864278616904942 7.315795949057624
H -4.927578646793125 1.9993212569498904 10.546938956846533
H -4.457363386266962 1.9993212569498904 12.025593409274576
H 0.23625712950323274 6.477282360734287 7.432176154023839
H 0.23625712950323274 6.841284285742847 8.9404944160319
H 2.725728638715594 5.015411722397258 1.8337517057735777
H 2.725728638715594 6.291852272367266 2.7159200022506265
H 6.258201952739127 0.3558356345030793 2.4110223664177024
H 4.9729126277534395 0.3558356345030793 1.5417970032380541
H 0.23625712950323274 6.477282360734287 7.432176154023839
H 0.23625712950323274 6.841284285742847 8.9404944160319
H 0.23625712950323274 6.477282360734287 7.432176154023839
H 0.23625712950323274 6.841284285742847 8.9404944160319
H 5.919383733411773 8.588523484367506 10.65223059254746
H 5.919383733411773 8.25202744142216 12.166922572455942
H 0.23625712950323274 6.477282360734287 7.432176154023839
H 0.23625712950323274 6.841284285742847 8.9404944160319
H 2.725728638715594 5.015411722397258 1.8337517057735777
H 2.725728638715594 6.291852272367266 2.7159200022506265
H 5.919383733411773 8.588523484367506 10.65223059254746
H 5.919383733411773 8.25202744142216 12.166922572455942
H 0.6020288097935587 -1.885508458983239 2.056574787006774
H 0.6020288097935587 -0.3687959391982909 1.729306528166186
H 2.588990174918609 -5.351887552851917 6.300880629292152
H 2.588990174918609 -4.435093774256192 5.049077710121116
H -1.5942657804075877 3.548781427684597 4.290282762569963
H -1.5942657804075877 4.797174354974917 5.211714518050782
H 0.6020288097935587 -1.885508458983239 2.056574787006774
H 0.6020288097935587 -0.3687959391982909 1.729306528166186
H -1.5942657804075877 3.548781427684597 4.290282762569963
H -1.5942657804075877 4.797174354974917 5.211714518050782
H 0.6020288097935587 -1.885508458983239 2.056574787006774
H 0.6020288097935587 -0.3687959391982909 1.729306528166186
H 5.045165030870864 3.1667012655884523 1.019655498545514
H 3.6235906576502903 3.1667012655884523 0.3978454935443956
H -0.979266575510302 -0.5397252566743876 2.7903679639925896
H -2.4561676119950366 -0.5397252566743876 3.2660618880102
H 2.588990174918609 -5.351887552851917 6.300880629292152
H 2.588990174918609 -4.435093774256192 5.049077710121116
H 0.6020288097935587 -1.885508458983239 2.056574787006774
H 0.6020288097935587 -0.3687959391982909 1.729306528166186
H 2.588990174918609 -5.351887552851917 6.300880629292152
H 2.588990174918609 -4.435093774256192 5.049077710121116
H 0.6020288097935587 -1.885508458983239 2.056574787006774
H 0.6020288097935587 -0.3687959391982909 1.729306528166186
H 2.725728638715594 5.015411722397258 1.8337517057735777
H 2.725728638715594 6.291852272367266 2.7159200022506265
H 0.6020288097935587 -1.885508458983239 2.056574787006774
H 0.6020288097935587 -0.3687959391982909 1.729306528166186
H 2.725728638715594 5.015411722397258 1.8337517057735777
H 2.725728638715594 6.291852272367266 2.7159200022506265
H -0.979266575510302 -0.5397252566743876 2.7903679639925896
H -2.4561676119950366 -0.5397252566743876 3.2660618880102
