64
Molecule with added oxygen and hydrogen atoms
Fe          -0.78006553251855        0.70984857027475        0.02349579389128
O           -1.57251117232866        2.75183936843688        0.21107536799871
H           -1.98142433462814        3.30315860462223       -0.46954483138419
O            1.18822857603172        1.67337799026996       -0.19541411496755
H            2.04750679301265        1.25387209423000       -0.33499722366048
O           -0.42068789468141        0.82837796993632        2.19084792107342
H           -0.98957989705712        0.51720418316258        2.90743755858488
O           -0.73718995829567       -1.42688075673182        0.54549886604068
H           -1.46678129942004       -2.05783750803188        0.48544880458623
O           -2.87608405580398        0.38150592782843       -0.55297953787835
H           -3.20966366503934        0.09301504835470       -1.41298038028704
O           -0.28942878530585        0.06905940301953       -2.02165113801018
H           -0.16529831577100        0.61540612050945       -2.80947156155758
H           -0.08455116085088       -0.83079268857008       -2.30846365725355
H            1.36541090118822        2.62219261615257       -0.24406353258009
H           -1.63902278689046        3.26729412722004        1.02556576980787
H           -3.66631694795816        0.54847867385952       -0.02255025858447
H            0.38172509777689        1.14514036231812        2.62615419620192
H           -0.01578313148194       -1.91818033687159        0.96063736797501
O 1.010238221499832 0.7129515668415637 4.6984585303506945
H 1.910238221499832 0.7129515668415637 4.6984585303506945
H 0.717226882488391 1.5639182848809488 4.6984585303506945
O -2.99692334844663 -1.313519315943005 4.0317918636840275
H -2.09692334844663 -1.313519315943005 4.0317918636840275
H -3.289934687458071 -0.4625525979036198 4.0317918636840275
O -0.4590002751294863 4.425461841159022 3.365125197017362
H 0.4409997248705137 4.425461841159022 3.365125197017362
H -0.7520116141409273 5.276428559198407 3.365125197017362
O 1.7885911745060201 -2.643603322799666 2.698458530350694
H 2.68859117450602 -2.643603322799666 2.698458530350694
H 1.495579835494579 -1.7926366047602806 2.698458530350694
O -5.297340798513404 1.511153539149818 2.031791863684028
H -4.397340798513404 1.511153539149818 2.031791863684028
H -5.590352137524845 2.3621202571892033 2.031791863684028
O 3.281192884106069 3.29941404841949 1.3651251970173608
H 4.1811928841060695 3.29941404841949 1.3651251970173608
H 2.988181545094628 4.150380766458875 1.3651251970173608
O -2.071248528800138 -4.0725106618224745 0.6984585303506945
H -1.1712485288001382 -4.0725106618224745 0.6984585303506945
H -2.364259867811579 -3.2215439437830895 0.6984585303506945
O -3.0893518377785 5.150193713067845 0.031791863684027706
H -2.1893518377785 5.150193713067845 0.031791863684027706
H -3.382363176789941 6.0011604311072295 0.031791863684027706
O 3.869854941446543 -0.9869270563452767 -0.6348748029826391
H 4.769854941446543 -0.9869270563452767 -0.6348748029826391
H 3.576843602435102 -0.1359603383058915 -0.6348748029826391
O -5.239186276721281 -1.1257474359346271 -1.3015414696493057
H -4.33918627672128 -1.1257474359346271 -1.3015414696493057
H -5.532197615732722 -0.27478071789524194 -1.3015414696493057
O 1.1574896410993096 4.863547430343403 -1.9682081363159718
H 2.0574896410993095 4.863547430343403 -1.9682081363159718
H 0.8644783020878686 5.714514148382788 -1.9682081363159718
O 0.48101212599298315 -3.3227102421056407 -2.6348748029826403
H 1.3810121259929833 -3.3227102421056407 -2.6348748029826403
H 0.18800078698154216 -2.4717435240662553 -2.6348748029826403
O -4.009268514050077 2.5815872936240045 -3.3015414696493064
H -3.109268514050077 2.5815872936240045 -3.3015414696493064
H -4.302279853061518 3.43255401166339 -3.3015414696493064
O 2.145210606672872 1.357109853965277 -3.9682081363159725
H 3.045210606672872 1.357109853965277 -3.9682081363159725
H 1.852199267661431 2.2080765720046625 -3.9682081363159725
O -1.8172056346619068 -0.7555154362449256 -4.634874802982639
H -0.9172056346619067 -0.7555154362449256 -4.634874802982639
H -2.1102169736733476 0.09545128179445961 -4.634874802982639
