129
Molecule with added oxygen and hydrogen atoms
Fe 	0.000000	0.000000	0.000000
O 	0.000000	2.080000	0.000000
S 	0.000000	3.554306	0.000000
O 	-1.388232	3.927197	-0.264002
O 	0.465789	3.909857	1.344994
O 	0.919789	3.915544	-1.073678
O 	2.080000	0.000000	0.000000
H 	1.524244	-0.022592	0.803433
H 	1.433536	0.229242	-0.688054
O 	0.000000	-2.080000	0.000000
H 	0.202023	-1.541783	0.791366
H 	0.330099	-1.499906	-0.712306
O 	-2.080000	0.000000	0.000000
H 	-2.006897	-0.906779	0.355648
H 	-1.453946	-0.101549	-0.745367
O 	0.000000	0.000000	2.080000
H 	0.178959	0.810189	2.588941
H 	-0.782499	0.271607	1.551794
O 	0.000000	0.000000	-2.080000
H 	-0.665532	0.583102	-2.489252
H 	0.751384	0.108253	-2.690368
O 0.006445325171070212 6.203877163700695 0.016095516497523103
H 0.9064453251710702 6.203877163700695 0.016095516497523103
H -0.2865660138403708 7.05484388174008 0.016095516497523103
O -2.354622756705307 5.1736474531159145 2.1764243631816895
H -1.454622756705307 5.1736474531159145 2.1764243631816895
H -2.647634095716748 6.024614171155299 2.1764243631816895
O 0.3819798624997371 4.250650528231809 -4.277410354265892
H 1.2819798624997372 4.250650528231809 -4.277410354265892
H 0.08896852348829609 5.101617246271194 -4.277410354265892
O 2.9513762558723435 3.259030058188287 3.8545843287972716
H 3.8513762558723434 3.259030058188287 3.8545843287972716
H 2.6583649168609025 4.109996776227672 3.8545843287972716
O -5.235068613533749 2.4117201891187587 -0.9163607299822708
H -4.335068613533749 2.4117201891187587 -0.9163607299822708
H -5.52807995254519 3.2626869071581437 -0.9163607299822708
O 4.6533721263448955 1.548409372885216 -2.9490897955321556
H 5.553372126344896 1.548409372885216 -2.9490897955321556
H 4.3603607873334544 2.3993760909246014 -2.9490897955321556
O -1.4295668708617815 0.7239291426011191 5.334621796573116
H -0.5295668708617814 0.7239291426011191 5.334621796573116
H -1.7225782098732225 1.5748958606405044 5.334621796573116
O -2.5779954135692 -0.07556178962176441 -4.962169684857859
H -1.6779954135692 -0.07556178962176441 -4.962169684857859
H -2.871006752580641 0.7754049284176208 -4.962169684857859
O 5.014698200119054 -0.8197003505654277 1.8352700781581603
H 5.914698200119054 -0.8197003505654277 1.8352700781581603
H 4.721686861107613 0.0312663674739575 1.8352700781581603
O -4.73140454343596 -1.5698602619964659 1.9577268106641104
H -3.83140454343596 -1.5698602619964659 1.9577268106641104
H -5.024415882447401 -0.7188935439570807 1.9577268106641104
O 2.028765084795279 -2.3060081369125953 -4.328974951924561
H 2.928765084795279 -2.3060081369125953 -4.328974951924561
H 1.7357537457838381 -1.4550414188732101 -4.328974951924561
O 1.2605373990381141 -2.9477078998059216 4.018372110802689
H 2.1605373990381143 -2.9477078998059216 4.018372110802689
H 0.9675260600266731 -2.0967411817665367 4.018372110802689
O -3.1035969645649946 -3.6777073159082425 -1.79746309389096
H -2.2035969645649947 -3.6777073159082425 -1.79746309389096
H -3.3966083035764356 -2.8267405978688576 -1.79746309389096
O 2.52410995006066 -4.302726239491707 -0.5546985259859681
H 3.42410995006066 -4.302726239491707 -0.5546985259859681
H 2.231098611049219 -3.4517595214523222 -0.5546985259859681
O -0.00023488656560398738 -4.943470037488149 -0.0005865678598645022
H 0.899765113434396 -4.943470037488149 -0.0005865678598645022
H -0.293246225577045 -4.092503319448764 -0.0005865678598645022
O -0.019990907444998762 8.259656255236099 0.008868704935480358
H 0.8800090925550013 8.259656255236099 0.008868704935480358
H -0.31300224645643976 9.110622973275484 0.008868704935480358
O -2.6622954024055967 7.311998630457679 2.4303728917127825
H -1.7622954024055968 7.311998630457679 2.4303728917127825
H -2.9553067414170378 8.162965348497064 2.4303728917127825
O 0.41488131626002345 6.514856126221149 -4.930231056664966
H 1.3148813162600235 6.514856126221149 -4.930231056664966
H 0.12186997724858245 7.365822844260534 -4.930231056664966
O 3.5345548847597104 5.633522034027502 4.640320845557305
H 4.43455488475971 5.633522034027502 4.640320845557305
H 3.2415435457482693 6.484488752066887 4.640320845557305
O -6.308840339131614 4.719472203946885 -1.1069295435306128
H -5.408840339131614 4.719472203946885 -1.1069295435306128
H -6.601851678143055 5.57043892198627 -1.1069295435306128
O 5.929802860439123 3.983287393052605 -3.775269524783723
H 6.829802860439123 3.983287393052605 -3.775269524783723
H 5.636791521427682 4.83425411109199 -3.775269524783723
O -1.8868075463906118 3.0844476012758064 6.976710521084693
H -0.9868075463906117 3.0844476012758064 6.976710521084693
H -2.1798188854020526 3.935414319315192 6.976710521084693
O -3.4786753295673187 2.298285616733411 -6.667298564279947
H -2.578675329567319 2.298285616733411 -6.667298564279947
H -3.77168666857876 3.149252334772796 -6.667298564279947
O 7.276922921604933 1.5149075453299465 2.6684579141709888
H 8.176922921604932 1.5149075453299465 2.6684579141709888
H 6.983911582593492 2.3658742633693315 2.6684579141709888
O -7.0425760808216635 0.7159845932064932 2.9073659790938655
H -6.142576080821663 0.7159845932064932 2.9073659790938655
H -7.335587419833105 1.5669513112458784 2.9073659790938655
O 3.296519105485178 -0.060652780127309125 -7.064486767470209
H 4.196519105485178 -0.060652780127309125 -7.064486767470209
H 3.003507766473737 0.790313937912076 -7.064486767470209
O 2.2657640779094415 -0.8122444469366753 7.257739851027785
H 3.1657640779094414 -0.8122444469366753 7.257739851027785
H 1.9727527388980004 0.03872227110270987 7.257739851027785
O -6.392169708963119 -1.5462203572007591 -3.6964179514668576
H -5.492169708963119 -1.5462203572007591 -3.6964179514668576
H -6.68518104797456 -0.695253639161374 -3.6964179514668576
O 7.121053497426921 -2.3452394081925 -1.5633975860195948
H 8.021053497426921 -2.3452394081925 -1.5633975860195948
H 6.82804215841548 -1.494272690153115 -1.5633975860195948
O -3.9080605987810215 -2.991470097435688 5.5530278116098275
H -3.0080605987810216 -2.991470097435688 5.5530278116098275
H -4.201071937792462 -2.1405033793963026 5.5530278116098275
O -0.8376265186401565 -3.767496301035592 -6.4082220878387055
H 0.06237348135984355 -3.767496301035592 -6.4082220878387055
H -1.1306378576515974 -2.9165295829962066 -6.4082220878387055
O 4.535477100348629 -4.4866603688119 3.8305188314526384
H 5.4354771003486295 -4.4866603688119 3.8305188314526384
H 4.242465761337188 -3.635693650772515 3.8305188314526384
O -5.1889624487999955 -5.10679093260828 0.21615452244338396
H -4.288962448799995 -5.10679093260828 0.21615452244338396
H -5.4819737878114365 -4.255824214568895 0.21615452244338396
O 3.1190857861061634 -5.902696529568356 -3.1067057972003074
H 4.019085786106164 -5.902696529568356 -3.1067057972003074
H 2.8260744470947223 -5.051729811528971 -3.1067057972003074
O -0.14856107434437021 -6.513508294736001 3.1447192330053424
H 0.7514389256556298 -6.513508294736001 3.1447192330053424
H -0.4415724133558112 -5.662541576696616 3.1447192330053424
O -0.002808882789049144 -7.205815678348652 0.0012461241553423374
H 0.8971911172109509 -7.205815678348652 0.0012461241553423374
H -0.29582022180049017 -6.354848960309267 0.0012461241553423374
