66
Molecule with added oxygen and hydrogen atoms
Fe 	0.000000	0.000000	0.000000
O 	0.000000	2.080000	0.000000
S 	0.000000	3.554306	0.000000
O 	-1.388232	3.927197	-0.264002
O 	0.465789	3.909857	1.344994
O 	0.919789	3.915544	-1.073678
O 	2.080000	0.000000	0.000000
H 	1.524244	-0.022592	0.803433
H 	1.433536	0.229242	-0.688054
O 	0.000000	-2.080000	0.000000
H 	0.202023	-1.541783	0.791366
H 	0.330099	-1.499906	-0.712306
O 	-2.080000	0.000000	0.000000
H 	-2.006897	-0.906779	0.355648
H 	-1.453946	-0.101549	-0.745367
O 	0.000000	0.000000	2.080000
H 	0.178959	0.810189	2.588941
H 	-0.782499	0.271607	1.551794
O 	0.000000	0.000000	-2.080000
H 	-0.665532	0.583102	-2.489252
H 	0.751384	0.108253	-2.690368
O 0.006445325171070212 6.203877163700695 0.016095516497523103
H 0.9064453251710702 6.203877163700695 0.016095516497523103
H -0.2865660138403708 7.05484388174008 0.016095516497523103
O -2.354622756705307 5.1736474531159145 2.1764243631816895
H -1.454622756705307 5.1736474531159145 2.1764243631816895
H -2.647634095716748 6.024614171155299 2.1764243631816895
O 0.3819798624997371 4.250650528231809 -4.277410354265892
H 1.2819798624997372 4.250650528231809 -4.277410354265892
H 0.08896852348829609 5.101617246271194 -4.277410354265892
O 2.9513762558723435 3.259030058188287 3.8545843287972716
H 3.8513762558723434 3.259030058188287 3.8545843287972716
H 2.6583649168609025 4.109996776227672 3.8545843287972716
O -5.235068613533749 2.4117201891187587 -0.9163607299822708
H -4.335068613533749 2.4117201891187587 -0.9163607299822708
H -5.52807995254519 3.2626869071581437 -0.9163607299822708
O 4.6533721263448955 1.548409372885216 -2.9490897955321556
H 5.553372126344896 1.548409372885216 -2.9490897955321556
H 4.3603607873334544 2.3993760909246014 -2.9490897955321556
O -1.4295668708617815 0.7239291426011191 5.334621796573116
H -0.5295668708617814 0.7239291426011191 5.334621796573116
H -1.7225782098732225 1.5748958606405044 5.334621796573116
O -2.5779954135692 -0.07556178962176441 -4.962169684857859
H -1.6779954135692 -0.07556178962176441 -4.962169684857859
H -2.871006752580641 0.7754049284176208 -4.962169684857859
O 5.014698200119054 -0.8197003505654277 1.8352700781581603
H 5.914698200119054 -0.8197003505654277 1.8352700781581603
H 4.721686861107613 0.0312663674739575 1.8352700781581603
O -4.73140454343596 -1.5698602619964659 1.9577268106641104
H -3.83140454343596 -1.5698602619964659 1.9577268106641104
H -5.024415882447401 -0.7188935439570807 1.9577268106641104
O 2.028765084795279 -2.3060081369125953 -4.328974951924561
H 2.928765084795279 -2.3060081369125953 -4.328974951924561
H 1.7357537457838381 -1.4550414188732101 -4.328974951924561
O 1.2605373990381141 -2.9477078998059216 4.018372110802689
H 2.1605373990381143 -2.9477078998059216 4.018372110802689
H 0.9675260600266731 -2.0967411817665367 4.018372110802689
O -3.1035969645649946 -3.6777073159082425 -1.79746309389096
H -2.2035969645649947 -3.6777073159082425 -1.79746309389096
H -3.3966083035764356 -2.8267405978688576 -1.79746309389096
O 2.52410995006066 -4.302726239491707 -0.5546985259859681
H 3.42410995006066 -4.302726239491707 -0.5546985259859681
H 2.231098611049219 -3.4517595214523222 -0.5546985259859681
O -0.00023488656560398738 -4.943470037488149 -0.0005865678598645022
H 0.899765113434396 -4.943470037488149 -0.0005865678598645022
H -0.293246225577045 -4.092503319448764 -0.0005865678598645022
