 xtb: 6.6.0 (conda-forge)
          06072414013D

167145  0     0  0            999 V2000
    5.6363    7.2091    3.8380 Fe  0  0  0  0  0  0  0  0  0  0  0  0
    6.4700    5.8590    2.1445 Si  0  0  0  0  0  0  0  0  0  0  0  0
    4.7658    9.9464    4.4896 O   0  0  0  0  0  0  0  0  0  0  0  0
    8.4026    7.4002    4.7242 O   0  0  0  0  0  0  0  0  0  0  0  0
    5.0814    5.9050    6.3930 O   0  0  0  0  0  0  0  0  0  0  0  0
    3.1048    6.4800    2.6077 O   0  0  0  0  0  0  0  0  0  0  0  0
    7.2253    7.3689    1.1704 N   0  0  0  0  0  0  0  0  0  0  0  0
    8.2548    5.6786    1.9348 N   0  0  0  0  0  0  0  0  0  0  0  0
    9.6465    7.4308    1.0619 N   0  0  0  0  0  0  0  0  0  0  0  0
    5.9443    4.0822    2.6076 N   0  0  0  0  0  0  0  0  0  0  0  0
    5.4201    5.1419    0.8486 N   0  0  0  0  0  0  0  0  0  0  0  0
    4.2697    3.0600    1.1885 N   0  0  0  0  0  0  0  0  0  0  0  0
    8.4515    6.8827    1.3705 C   0  0  0  0  0  0  0  0  0  0  0  0
    6.7758    8.7467    1.0000 C   0  0  0  0  0  0  0  0  0  0  0  0
    5.7395    8.7056    1.3710 H   0  0  0  0  0  0  0  0  0  0  0  0
    7.5317    9.7510    1.8648 C   0  0  0  0  0  0  0  0  0  0  0  0
    8.5554    9.8690    1.5259 H   0  0  0  0  0  0  0  0  0  0  0  0
    7.5321    9.4369    2.9092 H   0  0  0  0  0  0  0  0  0  0  0  0
    7.0371   10.7163    1.7965 H   0  0  0  0  0  0  0  0  0  0  0  0
    6.7270    9.2626   -0.4461 C   0  0  0  0  0  0  0  0  0  0  0  0
    7.6664    9.7233   -0.7350 H   0  0  0  0  0  0  0  0  0  0  0  0
    5.9570   10.0287   -0.5038 H   0  0  0  0  0  0  0  0  0  0  0  0
    6.4807    8.4717   -1.1457 H   0  0  0  0  0  0  0  0  0  0  0  0
    9.2200    4.5983    2.0210 C   0  0  0  0  0  0  0  0  0  0  0  0
   10.1550    4.9521    1.5827 H   0  0  0  0  0  0  0  0  0  0  0  0
    9.4640    4.2069    3.4753 C   0  0  0  0  0  0  0  0  0  0  0  0
   10.1782    3.3888    3.5164 H   0  0  0  0  0  0  0  0  0  0  0  0
    8.5325    3.9010    3.9359 H   0  0  0  0  0  0  0  0  0  0  0  0
    9.8633    5.0435    4.0441 H   0  0  0  0  0  0  0  0  0  0  0  0
    8.7499    3.4020    1.1980 C   0  0  0  0  0  0  0  0  0  0  0  0
    8.7044    3.6674    0.1457 H   0  0  0  0  0  0  0  0  0  0  0  0
    7.7656    3.0883    1.5225 H   0  0  0  0  0  0  0  0  0  0  0  0
    9.4520    2.5837    1.3265 H   0  0  0  0  0  0  0  0  0  0  0  0
    9.8062    7.8803   -0.3259 C   0  0  0  0  0  0  0  0  0  0  0  0
    8.7889    8.0442   -0.6779 H   0  0  0  0  0  0  0  0  0  0  0  0
   10.5896    9.1695   -0.5327 C   0  0  0  0  0  0  0  0  0  0  0  0
   11.6441    9.0477   -0.3062 H   0  0  0  0  0  0  0  0  0  0  0  0
   10.1943    9.9920    0.0572 H   0  0  0  0  0  0  0  0  0  0  0  0
   10.5068    9.4353   -1.5845 H   0  0  0  0  0  0  0  0  0  0  0  0
   10.3878    6.7654   -1.2038 C   0  0  0  0  0  0  0  0  0  0  0  0
   10.2617    7.0533   -2.2442 H   0  0  0  0  0  0  0  0  0  0  0  0
    9.8604    5.8313   -1.0296 H   0  0  0  0  0  0  0  0  0  0  0  0
   11.4460    6.6218   -1.0179 H   0  0  0  0  0  0  0  0  0  0  0  0
   10.7258    7.3697    2.0531 C   0  0  0  0  0  0  0  0  0  0  0  0
   10.3581    6.7175    2.8481 H   0  0  0  0  0  0  0  0  0  0  0  0
   10.9496    8.7365    2.7100 C   0  0  0  0  0  0  0  0  0  0  0  0
   11.2825    9.4784    1.9939 H   0  0  0  0  0  0  0  0  0  0  0  0
   11.7160    8.6249    3.4728 H   0  0  0  0  0  0  0  0  0  0  0  0
   10.0393    9.0866    3.1887 H   0  0  0  0  0  0  0  0  0  0  0  0
   12.0620    6.8213    1.5588 C   0  0  0  0  0  0  0  0  0  0  0  0
   11.9593    5.8427    1.0997 H   0  0  0  0  0  0  0  0  0  0  0  0
   12.7185    6.7255    2.4205 H   0  0  0  0  0  0  0  0  0  0  0  0
   12.5386    7.4965    0.8555 H   0  0  0  0  0  0  0  0  0  0  0  0
    5.1459    4.0214    1.5411 C   0  0  0  0  0  0  0  0  0  0  0  0
    5.7835    3.4835    3.9229 C   0  0  0  0  0  0  0  0  0  0  0  0
    6.2953    4.2035    4.5750 H   0  0  0  0  0  0  0  0  0  0  0  0
    4.3271    3.4063    4.3703 C   0  0  0  0  0  0  0  0  0  0  0  0
    3.7871    2.6667    3.7901 H   0  0  0  0  0  0  0  0  0  0  0  0
    3.8437    4.3745    4.2532 H   0  0  0  0  0  0  0  0  0  0  0  0
    4.2823    3.1229    5.4194 H   0  0  0  0  0  0  0  0  0  0  0  0
    6.4657    2.1216    4.1245 C   0  0  0  0  0  0  0  0  0  0  0  0
    5.8094    1.2981    3.8583 H   0  0  0  0  0  0  0  0  0  0  0  0
    6.7067    2.0157    5.1788 H   0  0  0  0  0  0  0  0  0  0  0  0
    7.3850    2.0481    3.5529 H   0  0  0  0  0  0  0  0  0  0  0  0
    5.1601    5.3593   -0.5651 C   0  0  0  0  0  0  0  0  0  0  0  0
    4.6375    4.4781   -0.9419 H   0  0  0  0  0  0  0  0  0  0  0  0
    4.2795    6.5894   -0.7679 C   0  0  0  0  0  0  0  0  0  0  0  0
    4.1779    6.7992   -1.8284 H   0  0  0  0  0  0  0  0  0  0  0  0
    4.7199    7.4458   -0.2714 H   0  0  0  0  0  0  0  0  0  0  0  0
    3.2858    6.4314   -0.3548 H   0  0  0  0  0  0  0  0  0  0  0  0
    6.4769    5.4672   -1.3295 C   0  0  0  0  0  0  0  0  0  0  0  0
    6.2795    5.6089   -2.3890 H   0  0  0  0  0  0  0  0  0  0  0  0
    7.0492    4.5527   -1.2032 H   0  0  0  0  0  0  0  0  0  0  0  0
    7.0645    6.2966   -0.9561 H   0  0  0  0  0  0  0  0  0  0  0  0
    2.9650    3.4625    0.6502 C   0  0  0  0  0  0  0  0  0  0  0  0
    3.0289    4.5443    0.5206 H   0  0  0  0  0  0  0  0  0  0  0  0
    2.5709    2.8336   -0.6838 C   0  0  0  0  0  0  0  0  0  0  0  0
    3.3472    2.9470   -1.4341 H   0  0  0  0  0  0  0  0  0  0  0  0
    1.6788    3.3405   -1.0453 H   0  0  0  0  0  0  0  0  0  0  0  0
    2.3360    1.7793   -0.5753 H   0  0  0  0  0  0  0  0  0  0  0  0
    1.8435    3.2368    1.6710 C   0  0  0  0  0  0  0  0  0  0  0  0
    0.9332    3.6815    1.2772 H   0  0  0  0  0  0  0  0  0  0  0  0
    2.0812    3.7201    2.6142 H   0  0  0  0  0  0  0  0  0  0  0  0
    1.6594    2.1824    1.8414 H   0  0  0  0  0  0  0  0  0  0  0  0
    4.7759    1.6824    1.2162 C   0  0  0  0  0  0  0  0  0  0  0  0
    5.6250    1.7181    1.8969 H   0  0  0  0  0  0  0  0  0  0  0  0
    5.3354    1.2792   -0.1533 C   0  0  0  0  0  0  0  0  0  0  0  0
    4.5423    1.0567   -0.8582 H   0  0  0  0  0  0  0  0  0  0  0  0
    5.9419    0.3861   -0.0322 H   0  0  0  0  0  0  0  0  0  0  0  0
    5.9606    2.0740   -0.5518 H   0  0  0  0  0  0  0  0  0  0  0  0
    3.8033    0.6275    1.7264 C   0  0  0  0  0  0  0  0  0  0  0  0
    3.0128    0.4225    1.0109 H   0  0  0  0  0  0  0  0  0  0  0  0
    3.3600    0.9164    2.6749 H   0  0  0  0  0  0  0  0  0  0  0  0
    4.3564   -0.2951    1.8902 H   0  0  0  0  0  0  0  0  0  0  0  0
    5.1417    8.9027    4.2009 C   0  0  0  0  0  0  0  0  0  0  0  0
    7.3177    7.3556    4.3529 C   0  0  0  0  0  0  0  0  0  0  0  0
    5.2983    6.3119    5.3453 C   0  0  0  0  0  0  0  0  0  0  0  0
    4.1062    6.7964    3.0726 C   0  0  0  0  0  0  0  0  0  0  0  0
    8.0238    5.7169    8.5953 O   0  0  0  0  0  0  0  0  0  0  0  0
    8.5648    4.9301    8.4719 H   0  0  0  0  0  0  0  0  0  0  0  0
    7.6826    5.6811    9.4941 H   0  0  0  0  0  0  0  0  0  0  0  0
    3.7762    2.6486    7.7841 O   0  0  0  0  0  0  0  0  0  0  0  0
    4.3413    2.4524    8.5375 H   0  0  0  0  0  0  0  0  0  0  0  0
    2.9083    2.8676    8.1359 H   0  0  0  0  0  0  0  0  0  0  0  0
    7.2967   10.3339    6.2892 O   0  0  0  0  0  0  0  0  0  0  0  0
    7.7636   11.1754    6.2488 H   0  0  0  0  0  0  0  0  0  0  0  0
    7.2267   10.1114    7.2224 H   0  0  0  0  0  0  0  0  0  0  0  0
   10.1476    0.5038    8.1723 O   0  0  0  0  0  0  0  0  0  0  0  0
    9.6146   -0.2647    7.9461 H   0  0  0  0  0  0  0  0  0  0  0  0
   10.5379    0.8245    7.3525 H   0  0  0  0  0  0  0  0  0  0  0  0
    2.7326    7.7362    5.5307 O   0  0  0  0  0  0  0  0  0  0  0  0
    2.7299    7.8387    6.4867 H   0  0  0  0  0  0  0  0  0  0  0  0
    1.8064    7.6988    5.2695 H   0  0  0  0  0  0  0  0  0  0  0  0
   13.6756    7.6367    4.8028 O   0  0  0  0  0  0  0  0  0  0  0  0
   14.5237    8.0865    4.8652 H   0  0  0  0  0  0  0  0  0  0  0  0
   13.5091    7.2302    5.6588 H   0  0  0  0  0  0  0  0  0  0  0  0
    5.6129   -2.0365    3.1017 O   0  0  0  0  0  0  0  0  0  0  0  0
    6.4873   -2.4159    2.9695 H   0  0  0  0  0  0  0  0  0  0  0  0
    5.1825   -2.5572    3.7861 H   0  0  0  0  0  0  0  0  0  0  0  0
    3.2447   12.6885    4.4273 O   0  0  0  0  0  0  0  0  0  0  0  0
    3.5796   11.7951    4.5671 H   0  0  0  0  0  0  0  0  0  0  0  0
    4.0145   13.2430    4.2652 H   0  0  0  0  0  0  0  0  0  0  0  0
   12.2577    1.9111    3.0318 O   0  0  0  0  0  0  0  0  0  0  0  0
   12.7078    1.4405    2.3234 H   0  0  0  0  0  0  0  0  0  0  0  0
   12.9445    2.2602    3.6074 H   0  0  0  0  0  0  0  0  0  0  0  0
   -1.5609    4.4097    5.8229 O   0  0  0  0  0  0  0  0  0  0  0  0
   -1.8702    4.5059    4.9169 H   0  0  0  0  0  0  0  0  0  0  0  0
   -1.1193    3.5567    5.8792 H   0  0  0  0  0  0  0  0  0  0  0  0
   10.0832   12.4490    0.9395 O   0  0  0  0  0  0  0  0  0  0  0  0
   10.3714   12.9997    1.6733 H   0  0  0  0  0  0  0  0  0  0  0  0
    9.9588   13.0361    0.1872 H   0  0  0  0  0  0  0  0  0  0  0  0
    9.9298   -2.6880   -0.2334 O   0  0  0  0  0  0  0  0  0  0  0  0
   10.1545   -1.8316    0.1456 H   0  0  0  0  0  0  0  0  0  0  0  0
    9.8078   -2.5515   -1.1780 H   0  0  0  0  0  0  0  0  0  0  0  0
   -0.9307    9.8344    0.6549 O   0  0  0  0  0  0  0  0  0  0  0  0
   -0.3001    9.2748    1.1198 H   0  0  0  0  0  0  0  0  0  0  0  0
   -1.1970   10.5272    1.2666 H   0  0  0  0  0  0  0  0  0  0  0  0
   14.1638    8.8596   -0.4508 O   0  0  0  0  0  0  0  0  0  0  0  0
   14.5784    8.7134   -1.3066 H   0  0  0  0  0  0  0  0  0  0  0  0
   14.7736    9.3950    0.0653 H   0  0  0  0  0  0  0  0  0  0  0  0
    1.5038   -0.5752   -0.7196 O   0  0  0  0  0  0  0  0  0  0  0  0
    1.7952   -1.4450   -1.0106 H   0  0  0  0  0  0  0  0  0  0  0  0
    0.5498   -0.5493   -0.8396 H   0  0  0  0  0  0  0  0  0  0  0  0
    4.3618   11.8191   -0.3245 O   0  0  0  0  0  0  0  0  0  0  0  0
    4.5110   12.7402   -0.5574 H   0  0  0  0  0  0  0  0  0  0  0  0
    3.4203   11.7219   -0.1538 H   0  0  0  0  0  0  0  0  0  0  0  0
   12.8444    1.1182   -2.4912 O   0  0  0  0  0  0  0  0  0  0  0  0
   12.6843    0.5775   -3.2706 H   0  0  0  0  0  0  0  0  0  0  0  0
   12.0424    1.6287   -2.3346 H   0  0  0  0  0  0  0  0  0  0  0  0
   -0.0255    4.9348   -1.9851 O   0  0  0  0  0  0  0  0  0  0  0  0
    0.0881    5.0272   -2.9363 H   0  0  0  0  0  0  0  0  0  0  0  0
   -0.6574    5.6085   -1.7161 H   0  0  0  0  0  0  0  0  0  0  0  0
   10.0613    8.6804   -4.2272 O   0  0  0  0  0  0  0  0  0  0  0  0
   10.7765    8.8367   -4.8507 H   0  0  0  0  0  0  0  0  0  0  0  0
    9.2467    8.6529   -4.7389 H   0  0  0  0  0  0  0  0  0  0  0  0
    8.1060    0.3338   -4.5514 O   0  0  0  0  0  0  0  0  0  0  0  0
    7.7767    1.2346   -4.6357 H   0  0  0  0  0  0  0  0  0  0  0  0
    7.3385   -0.2378   -4.4553 H   0  0  0  0  0  0  0  0  0  0  0  0
    3.8823   10.4363   -5.3693 O   0  0  0  0  0  0  0  0  0  0  0  0
    4.7159   10.5372   -4.8977 H   0  0  0  0  0  0  0  0  0  0  0  0
    3.1919   10.3664   -4.7023 H   0  0  0  0  0  0  0  0  0  0  0  0
   11.8115    4.5285   -6.5061 O   0  0  0  0  0  0  0  0  0  0  0  0
   12.5276    4.5629   -5.8642 H   0  0  0  0  0  0  0  0  0  0  0  0
   11.0031    4.3522   -6.0132 H   0  0  0  0  0  0  0  0  0  0  0  0
    5.9792    5.4479   -5.9289 O   0  0  0  0  0  0  0  0  0  0  0  0
    6.4551    5.1743   -6.7185 H   0  0  0  0  0  0  0  0  0  0  0  0
    5.2953    6.0633   -6.2112 H   0  0  0  0  0  0  0  0  0  0  0  0
  1  2  1  0  0  0  0
  2  7  1  0  0  0  0
  2  8  1  0  0  0  0
  2 10  1  0  0  0  0
  2 11  1  0  0  0  0
  7 13  4  0  0  0  0
  8 13  4  0  0  0  0
  9 13  4  0  0  0  0
  7 14  1  0  0  0  0
 14 15  1  0  0  0  0
 14 16  1  0  0  0  0
 16 17  1  0  0  0  0
 16 18  1  0  0  0  0
 16 19  1  0  0  0  0
 14 20  1  0  0  0  0
 20 21  1  0  0  0  0
 20 22  1  0  0  0  0
 20 23  1  0  0  0  0
  8 24  1  0  0  0  0
 24 25  1  0  0  0  0
 24 26  1  0  0  0  0
 26 27  1  0  0  0  0
 26 28  1  0  0  0  0
 26 29  1  0  0  0  0
 24 30  1  0  0  0  0
 30 31  1  0  0  0  0
 30 32  1  0  0  0  0
 30 33  1  0  0  0  0
  9 34  1  0  0  0  0
 34 35  1  0  0  0  0
 34 36  1  0  0  0  0
 36 37  1  0  0  0  0
 36 38  1  0  0  0  0
 36 39  1  0  0  0  0
 34 40  1  0  0  0  0
 40 41  1  0  0  0  0
 40 42  1  0  0  0  0
 40 43  1  0  0  0  0
  9 44  1  0  0  0  0
 44 45  1  0  0  0  0
 44 46  1  0  0  0  0
 46 47  1  0  0  0  0
 46 48  1  0  0  0  0
 46 49  1  0  0  0  0
 44 50  1  0  0  0  0
 50 51  1  0  0  0  0
 50 52  1  0  0  0  0
 50 53  1  0  0  0  0
 10 54  4  0  0  0  0
 11 54  4  0  0  0  0
 12 54  4  0  0  0  0
 10 55  1  0  0  0  0
 55 56  1  0  0  0  0
 55 57  1  0  0  0  0
 57 58  1  0  0  0  0
 57 59  1  0  0  0  0
 57 60  1  0  0  0  0
 55 61  1  0  0  0  0
 61 62  1  0  0  0  0
 61 63  1  0  0  0  0
 61 64  1  0  0  0  0
 11 65  1  0  0  0  0
 65 66  1  0  0  0  0
 65 67  1  0  0  0  0
 67 68  1  0  0  0  0
 67 69  1  0  0  0  0
 67 70  1  0  0  0  0
 65 71  1  0  0  0  0
 71 72  1  0  0  0  0
 71 73  1  0  0  0  0
 71 74  1  0  0  0  0
 12 75  1  0  0  0  0
 75 76  1  0  0  0  0
 75 77  1  0  0  0  0
 77 78  1  0  0  0  0
 77 79  1  0  0  0  0
 77 80  1  0  0  0  0
 75 81  1  0  0  0  0
 81 82  1  0  0  0  0
 81 83  1  0  0  0  0
 81 84  1  0  0  0  0
 12 85  1  0  0  0  0
 85 86  1  0  0  0  0
 85 87  1  0  0  0  0
 87 88  1  0  0  0  0
 87 89  1  0  0  0  0
 87 90  1  0  0  0  0
 85 91  1  0  0  0  0
 91 92  1  0  0  0  0
 91 93  1  0  0  0  0
 91 94  1  0  0  0  0
  1 95  1  0  0  0  0
  3 95  2  0  0  0  0
  1 96  1  0  0  0  0
  4 96  2  0  0  0  0
  1 97  1  0  0  0  0
  5 97  2  0  0  0  0
  1 98  1  0  0  0  0
  6 98  2  0  0  0  0
 99100  1  0  0  0  0
 99101  1  0  0  0  0
102103  1  0  0  0  0
102104  1  0  0  0  0
105106  1  0  0  0  0
105107  1  0  0  0  0
108109  1  0  0  0  0
108110  1  0  0  0  0
111112  1  0  0  0  0
111113  1  0  0  0  0
114115  1  0  0  0  0
114116  1  0  0  0  0
117118  1  0  0  0  0
117119  1  0  0  0  0
120121  1  0  0  0  0
120122  1  0  0  0  0
123124  1  0  0  0  0
123125  1  0  0  0  0
126127  1  0  0  0  0
126128  1  0  0  0  0
129130  1  0  0  0  0
129131  1  0  0  0  0
132133  1  0  0  0  0
132134  1  0  0  0  0
135136  1  0  0  0  0
135137  1  0  0  0  0
138139  1  0  0  0  0
138140  1  0  0  0  0
141142  1  0  0  0  0
141143  1  0  0  0  0
144145  1  0  0  0  0
144146  1  0  0  0  0
147148  1  0  0  0  0
147149  1  0  0  0  0
150151  1  0  0  0  0
150152  1  0  0  0  0
153154  1  0  0  0  0
153155  1  0  0  0  0
156157  1  0  0  0  0
156158  1  0  0  0  0
159160  1  0  0  0  0
159161  1  0  0  0  0
162163  1  0  0  0  0
162164  1  0  0  0  0
165166  1  0  0  0  0
165167  1  0  0  0  0
M  CHG  1   1   1
M  END
