 xtb: 6.6.0 (conda-forge)
          05172416383D

129 86  0     0  0            999 V2000
   -0.2938    0.0233   -0.5363 Fe  0  0  0  0  0  0  0  0  0  0  0  0
    0.3632    2.4617   -0.5694 O   0  0  0  0  0  0  0  0  0  0  0  0
    0.2074    3.7855   -0.0308 S   0  0  0  0  0  0  0  0  0  0  0  0
   -1.0191    4.4292   -0.5642 O   0  0  0  0  0  0  0  0  0  0  0  0
    0.0951    3.7549    1.4436 O   0  0  0  0  0  0  0  0  0  0  0  0
    1.3495    4.6465   -0.3972 O   0  0  0  0  0  0  0  0  0  0  0  0
    1.7606    0.2795    0.8933 O   0  0  0  0  0  0  0  0  0  0  0  0
    1.3490    0.0768    1.7599 H   0  0  0  0  0  0  0  0  0  0  0  0
    2.0186    1.2102    0.8766 H   0  0  0  0  0  0  0  0  0  0  0  0
    0.0388   -2.0758    0.7370 O   0  0  0  0  0  0  0  0  0  0  0  0
    0.1825   -1.7805    1.6511 H   0  0  0  0  0  0  0  0  0  0  0  0
    0.9291   -2.2549    0.3679 H   0  0  0  0  0  0  0  0  0  0  0  0
   -2.5702   -0.6448    0.0629 O   0  0  0  0  0  0  0  0  0  0  0  0
   -2.8036   -1.5140   -0.3272 H   0  0  0  0  0  0  0  0  0  0  0  0
   -3.3201   -0.0583   -0.0758 H   0  0  0  0  0  0  0  0  0  0  0  0
   -1.0312    1.2838    1.5047 O   0  0  0  0  0  0  0  0  0  0  0  0
   -0.5605    2.1210    1.5422 H   0  0  0  0  0  0  0  0  0  0  0  0
   -1.1519    0.9567    2.4233 H   0  0  0  0  0  0  0  0  0  0  0  0
   -0.8185   -1.7796   -2.2110 O   0  0  0  0  0  0  0  0  0  0  0  0
   -0.8521   -1.4367   -3.1128 H   0  0  0  0  0  0  0  0  0  0  0  0
   -0.1862   -2.5225   -2.2101 H   0  0  0  0  0  0  0  0  0  0  0  0
    0.7840    6.7703    1.0742 O   0  0  0  0  0  0  0  0  0  0  0  0
    1.0015    5.9893    0.5284 H   0  0  0  0  0  0  0  0  0  0  0  0
    1.5116    7.4072    0.9329 H   0  0  0  0  0  0  0  0  0  0  0  0
   -2.3147    4.3269    2.4626 O   0  0  0  0  0  0  0  0  0  0  0  0
   -1.4348    4.1047    2.1021 H   0  0  0  0  0  0  0  0  0  0  0  0
   -2.5294    5.1820    2.0628 H   0  0  0  0  0  0  0  0  0  0  0  0
   -0.1709    3.6849   -2.9716 O   0  0  0  0  0  0  0  0  0  0  0  0
   -0.3623    3.9841   -2.0707 H   0  0  0  0  0  0  0  0  0  0  0  0
   -0.6668    4.2642   -3.5812 H   0  0  0  0  0  0  0  0  0  0  0  0
    2.8268    2.8226    0.8864 O   0  0  0  0  0  0  0  0  0  0  0  0
    2.8616    3.2300    1.7681 H   0  0  0  0  0  0  0  0  0  0  0  0
    2.2940    3.4203    0.3423 H   0  0  0  0  0  0  0  0  0  0  0  0
   -1.4288    1.2270   -2.4505 O   0  0  0  0  0  0  0  0  0  0  0  0
   -0.8263    1.9693   -2.5947 H   0  0  0  0  0  0  0  0  0  0  0  0
   -2.1049    1.5749   -1.8400 H   0  0  0  0  0  0  0  0  0  0  0  0
    7.6542    3.5292   -3.6205 O   0  0  0  0  0  0  0  0  0  0  0  0
    6.9021    3.1838   -4.1123 H   0  0  0  0  0  0  0  0  0  0  0  0
    7.3040    4.2412   -3.0613 H   0  0  0  0  0  0  0  0  0  0  0  0
   -1.5542    0.3939    4.0152 O   0  0  0  0  0  0  0  0  0  0  0  0
   -2.2358   -0.1972    3.6091 H   0  0  0  0  0  0  0  0  0  0  0  0
   -2.0299    1.1742    4.3398 H   0  0  0  0  0  0  0  0  0  0  0  0
    1.4569    0.1250   -4.7059 O   0  0  0  0  0  0  0  0  0  0  0  0
    1.8674   -0.5172   -5.2894 H   0  0  0  0  0  0  0  0  0  0  0  0
    0.4873   -0.0198   -4.7569 H   0  0  0  0  0  0  0  0  0  0  0  0
    3.9000   -1.2078    1.3986 O   0  0  0  0  0  0  0  0  0  0  0  0
    4.7154   -0.7349    1.1896 H   0  0  0  0  0  0  0  0  0  0  0  0
    3.1541   -0.5816    1.1962 H   0  0  0  0  0  0  0  0  0  0  0  0
   -3.3155   -0.9994    2.5677 O   0  0  0  0  0  0  0  0  0  0  0  0
   -2.8148   -0.8994    1.7148 H   0  0  0  0  0  0  0  0  0  0  0  0
   -4.0492   -0.3843    2.4611 H   0  0  0  0  0  0  0  0  0  0  0  0
    1.7128   -0.0181   -1.9847 O   0  0  0  0  0  0  0  0  0  0  0  0
    1.6032   -0.0711   -2.9522 H   0  0  0  0  0  0  0  0  0  0  0  0
    2.0204    0.8777   -1.8222 H   0  0  0  0  0  0  0  0  0  0  0  0
    0.7130   -0.8576    3.0662 O   0  0  0  0  0  0  0  0  0  0  0  0
    1.4778   -1.1624    3.5839 H   0  0  0  0  0  0  0  0  0  0  0  0
    0.0555   -0.4610    3.6505 H   0  0  0  0  0  0  0  0  0  0  0  0
   -2.9219   -3.0451   -1.1179 O   0  0  0  0  0  0  0  0  0  0  0  0
   -2.3299   -3.6564   -0.6362 H   0  0  0  0  0  0  0  0  0  0  0  0
   -2.2964   -2.5773   -1.7139 H   0  0  0  0  0  0  0  0  0  0  0  0
    2.3649   -2.3136   -0.6158 O   0  0  0  0  0  0  0  0  0  0  0  0
    3.0332   -2.1440    0.0654 H   0  0  0  0  0  0  0  0  0  0  0  0
    2.2470   -1.4746   -1.0980 H   0  0  0  0  0  0  0  0  0  0  0  0
   -0.8609   -4.4321    0.0210 O   0  0  0  0  0  0  0  0  0  0  0  0
   -0.3382   -4.4384   -0.8011 H   0  0  0  0  0  0  0  0  0  0  0  0
   -0.6247   -3.5530    0.4218 H   0  0  0  0  0  0  0  0  0  0  0  0
    2.9139    8.5970    0.8969 O   0  0  0  0  0  0  0  0  0  0  0  0
    3.6665    8.2731    1.4037 H   0  0  0  0  0  0  0  0  0  0  0  0
    2.7171    9.4831    1.2202 H   0  0  0  0  0  0  0  0  0  0  0  0
   -1.9621    6.5499    0.7675 O   0  0  0  0  0  0  0  0  0  0  0  0
   -1.1052    6.9148    1.0433 H   0  0  0  0  0  0  0  0  0  0  0  0
   -1.7057    5.7969    0.1972 H   0  0  0  0  0  0  0  0  0  0  0  0
   -1.8101    5.4237   -4.4332 O   0  0  0  0  0  0  0  0  0  0  0  0
   -1.6859    6.3687   -4.3115 H   0  0  0  0  0  0  0  0  0  0  0  0
   -2.7544    5.2447   -4.3662 H   0  0  0  0  0  0  0  0  0  0  0  0
    2.0918    4.1863    3.2045 O   0  0  0  0  0  0  0  0  0  0  0  0
    1.8095    3.8716    4.0711 H   0  0  0  0  0  0  0  0  0  0  0  0
    1.3097    4.1396    2.6241 H   0  0  0  0  0  0  0  0  0  0  0  0
   -2.7083    2.3165   -0.3506 O   0  0  0  0  0  0  0  0  0  0  0  0
   -2.1794    3.1225   -0.4149 H   0  0  0  0  0  0  0  0  0  0  0  0
   -2.3149    1.8291    0.4018 H   0  0  0  0  0  0  0  0  0  0  0  0
    6.3463    5.4402   -1.9371 O   0  0  0  0  0  0  0  0  0  0  0  0
    6.2876    5.2280   -1.0003 H   0  0  0  0  0  0  0  0  0  0  0  0
    5.4811    5.7650   -2.2042 H   0  0  0  0  0  0  0  0  0  0  0  0
   -2.8501    2.7640    4.6818 O   0  0  0  0  0  0  0  0  0  0  0  0
   -2.6326    3.3620    5.4010 H   0  0  0  0  0  0  0  0  0  0  0  0
   -2.7649    3.2842    3.8636 H   0  0  0  0  0  0  0  0  0  0  0  0
   -1.1902   -0.3510   -4.5919 O   0  0  0  0  0  0  0  0  0  0  0  0
   -1.8627   -0.2508   -5.2673 H   0  0  0  0  0  0  0  0  0  0  0  0
   -1.3961    0.2817   -3.8687 H   0  0  0  0  0  0  0  0  0  0  0  0
    6.2149    0.2712    0.6286 O   0  0  0  0  0  0  0  0  0  0  0  0
    6.6674    0.9080    1.1867 H   0  0  0  0  0  0  0  0  0  0  0  0
    6.3016    0.5733   -0.2804 H   0  0  0  0  0  0  0  0  0  0  0  0
   -5.2899    0.0847    0.6903 O   0  0  0  0  0  0  0  0  0  0  0  0
   -6.1959    0.3858    0.6379 H   0  0  0  0  0  0  0  0  0  0  0  0
   -5.3095   -0.8997    0.6637 H   0  0  0  0  0  0  0  0  0  0  0  0
    2.3490    2.4539   -3.2794 O   0  0  0  0  0  0  0  0  0  0  0  0
    2.0846    1.7835   -3.9340 H   0  0  0  0  0  0  0  0  0  0  0  0
    1.5418    2.9460   -3.0797 H   0  0  0  0  0  0  0  0  0  0  0  0
    1.5850    1.4075    8.1478 O   0  0  0  0  0  0  0  0  0  0  0  0
    2.2461    0.9173    7.6482 H   0  0  0  0  0  0  0  0  0  0  0  0
    0.7553    0.9274    8.0580 H   0  0  0  0  0  0  0  0  0  0  0  0
   -6.4025   -0.1635   -4.3980 O   0  0  0  0  0  0  0  0  0  0  0  0
   -6.1966   -0.9359   -3.8599 H   0  0  0  0  0  0  0  0  0  0  0  0
   -6.1056    0.6066   -3.9031 H   0  0  0  0  0  0  0  0  0  0  0  0
    5.7813   -3.2907   -4.0978 O   0  0  0  0  0  0  0  0  0  0  0  0
    5.8440   -2.3586   -3.8656 H   0  0  0  0  0  0  0  0  0  0  0  0
    5.8662   -3.7884   -3.2783 H   0  0  0  0  0  0  0  0  0  0  0  0
   -1.4193   -4.8331    6.0256 O   0  0  0  0  0  0  0  0  0  0  0  0
   -0.6779   -4.8868    5.4131 H   0  0  0  0  0  0  0  0  0  0  0  0
   -2.0987   -4.3090    5.5890 H   0  0  0  0  0  0  0  0  0  0  0  0
   -2.3865   -6.1078   -5.3992 O   0  0  0  0  0  0  0  0  0  0  0  0
   -2.4769   -6.3993   -4.4859 H   0  0  0  0  0  0  0  0  0  0  0  0
   -2.6091   -5.1711   -5.4156 H   0  0  0  0  0  0  0  0  0  0  0  0
    3.1293   -1.8342    3.9314 O   0  0  0  0  0  0  0  0  0  0  0  0
    3.1942   -2.7910    3.9888 H   0  0  0  0  0  0  0  0  0  0  0  0
    3.5006   -1.5992    3.0509 H   0  0  0  0  0  0  0  0  0  0  0  0
   -4.9271   -2.6073    0.8025 O   0  0  0  0  0  0  0  0  0  0  0  0
   -4.3548   -2.8654    0.0572 H   0  0  0  0  0  0  0  0  0  0  0  0
   -4.3226   -2.4421    1.5458 H   0  0  0  0  0  0  0  0  0  0  0  0
    0.8398   -3.9493   -2.0903 O   0  0  0  0  0  0  0  0  0  0  0  0
    1.3171   -4.4254   -2.7706 H   0  0  0  0  0  0  0  0  0  0  0  0
    1.5016   -3.4819   -1.5411 H   0  0  0  0  0  0  0  0  0  0  0  0
    1.1125   -6.0086    1.2544 O   0  0  0  0  0  0  0  0  0  0  0  0
    0.6220   -6.8315    1.3327 H   0  0  0  0  0  0  0  0  0  0  0  0
    0.4594   -5.3735    0.8938 H   0  0  0  0  0  0  0  0  0  0  0  0
   -1.7995   -6.9123    0.9761 O   0  0  0  0  0  0  0  0  0  0  0  0
   -2.5252   -6.7433    1.5824 H   0  0  0  0  0  0  0  0  0  0  0  0
   -1.5651   -6.0458    0.5937 H   0  0  0  0  0  0  0  0  0  0  0  0
  2  3  1  0  0  0  0
  3  4  1  0  0  0  0
  3  5  1  0  0  0  0
  3  6  1  0  0  0  0
  7  8  1  0  0  0  0
  7  9  1  0  0  0  0
 10 11  1  0  0  0  0
 10 12  1  0  0  0  0
 13 14  1  0  0  0  0
 13 15  1  0  0  0  0
 16 17  1  0  0  0  0
 16 18  1  0  0  0  0
 19 20  1  0  0  0  0
 19 21  1  0  0  0  0
 22 23  1  0  0  0  0
 22 24  1  0  0  0  0
 25 26  1  0  0  0  0
 25 27  1  0  0  0  0
 28 29  1  0  0  0  0
 28 30  1  0  0  0  0
 31 32  1  0  0  0  0
 31 33  1  0  0  0  0
 34 35  1  0  0  0  0
 34 36  1  0  0  0  0
 37 38  1  0  0  0  0
 37 39  1  0  0  0  0
 40 41  1  0  0  0  0
 40 42  1  0  0  0  0
 43 44  1  0  0  0  0
 43 45  1  0  0  0  0
 46 47  1  0  0  0  0
 46 48  1  0  0  0  0
 49 50  1  0  0  0  0
 49 51  1  0  0  0  0
 52 53  1  0  0  0  0
 52 54  1  0  0  0  0
 55 56  1  0  0  0  0
 55 57  1  0  0  0  0
 58 59  1  0  0  0  0
 58 60  1  0  0  0  0
 61 62  1  0  0  0  0
 61 63  1  0  0  0  0
 64 65  1  0  0  0  0
 64 66  1  0  0  0  0
 67 68  1  0  0  0  0
 67 69  1  0  0  0  0
 70 71  1  0  0  0  0
 70 72  1  0  0  0  0
 73 74  1  0  0  0  0
 73 75  1  0  0  0  0
 76 77  1  0  0  0  0
 76 78  1  0  0  0  0
 79 80  1  0  0  0  0
 79 81  1  0  0  0  0
 82 83  1  0  0  0  0
 82 84  1  0  0  0  0
 85 86  1  0  0  0  0
 85 87  1  0  0  0  0
 88 89  1  0  0  0  0
 88 90  1  0  0  0  0
 91 92  1  0  0  0  0
 91 93  1  0  0  0  0
 94 95  1  0  0  0  0
 94 96  1  0  0  0  0
 97 98  1  0  0  0  0
 97 99  1  0  0  0  0
100101  1  0  0  0  0
100102  1  0  0  0  0
103104  1  0  0  0  0
103105  1  0  0  0  0
106107  1  0  0  0  0
106108  1  0  0  0  0
109110  1  0  0  0  0
109111  1  0  0  0  0
112113  1  0  0  0  0
112114  1  0  0  0  0
115116  1  0  0  0  0
115117  1  0  0  0  0
118119  1  0  0  0  0
118120  1  0  0  0  0
121122  1  0  0  0  0
121123  1  0  0  0  0
124125  1  0  0  0  0
124126  1  0  0  0  0
127128  1  0  0  0  0
127129  1  0  0  0  0
M  END
