 xtb: 6.6.0 (conda-forge)
          05102418433D

199131  0     0  0            999 V2000
    0.2413   -0.4316    0.4504 Fe  0  0  0  0  0  0  0  0  0  0  0  0
   -1.8555   -1.0507    1.6315 O   0  0  0  0  0  0  0  0  0  0  0  0
    1.8456    0.6221    1.9673 O   0  0  0  0  0  0  0  0  0  0  0  0
    2.3662   -0.6525   -0.7941 O   0  0  0  0  0  0  0  0  0  0  0  0
   -0.2633   -0.0584   -1.9644 O   0  0  0  0  0  0  0  0  0  0  0  0
   -0.9962    1.6734    0.6620 O   0  0  0  0  0  0  0  0  0  0  0  0
    1.1559   -2.2538    1.8549 O   0  0  0  0  0  0  0  0  0  0  0  0
   -1.9089    1.6128    0.3152 H   0  0  0  0  0  0  0  0  0  0  0  0
   -0.5130    2.2184    0.0221 H   0  0  0  0  0  0  0  0  0  0  0  0
    1.5142   -1.9638    2.7057 H   0  0  0  0  0  0  0  0  0  0  0  0
    1.9217   -2.5969    1.3695 H   0  0  0  0  0  0  0  0  0  0  0  0
   -2.3906   -0.2897    1.8859 H   0  0  0  0  0  0  0  0  0  0  0  0
   -2.4144   -1.5611    1.0360 H   0  0  0  0  0  0  0  0  0  0  0  0
    3.0266    0.0621   -0.7674 H   0  0  0  0  0  0  0  0  0  0  0  0
    2.8245   -1.4486   -0.4923 H   0  0  0  0  0  0  0  0  0  0  0  0
    1.9778    1.5285    1.6527 H   0  0  0  0  0  0  0  0  0  0  0  0
    2.7205    0.2082    1.9533 H   0  0  0  0  0  0  0  0  0  0  0  0
   -1.2333   -0.1534   -2.0486 H   0  0  0  0  0  0  0  0  0  0  0  0
    0.1406   -0.6704   -2.5873 H   0  0  0  0  0  0  0  0  0  0  0  0
   -4.2466    0.4899    1.8442 O   0  0  0  0  0  0  0  0  0  0  0  0
    3.3695   -3.0587    0.2758 O   0  0  0  0  0  0  0  0  0  0  0  0
   -2.9274   -0.3734   -1.9669 O   0  0  0  0  0  0  0  0  0  0  0  0
   -0.4675   -2.7645   -0.2470 O   0  0  0  0  0  0  0  0  0  0  0  0
   -3.4726    1.4247   -0.3331 O   0  0  0  0  0  0  0  0  0  0  0  0
   -3.1807   -2.5228   -0.5239 O   0  0  0  0  0  0  0  0  0  0  0  0
    2.9984   -1.7725    3.8330 O   0  0  0  0  0  0  0  0  0  0  0  0
    4.3779   -0.7524    1.6114 O   0  0  0  0  0  0  0  0  0  0  0  0
    2.4299    2.8700    0.5236 O   0  0  0  0  0  0  0  0  0  0  0  0
    0.5661    2.5092   -1.4202 O   0  0  0  0  0  0  0  0  0  0  0  0
    4.3049    1.1491   -0.2676 O   0  0  0  0  0  0  0  0  0  0  0  0
    1.6118   -3.8287   -1.5396 O   0  0  0  0  0  0  0  0  0  0  0  0
   -3.1178   -1.7083   -1.1014 H   0  0  0  0  0  0  0  0  0  0  0  0
   -3.4141   -3.2623   -1.1108 H   0  0  0  0  0  0  0  0  0  0  0  0
   -4.6758   -0.3449    1.5925 H   0  0  0  0  0  0  0  0  0  0  0  0
   -3.0886   11.8287    6.7950 H   0  0  0  0  0  0  0  0  0  0  0  0
   -4.1102    1.9786   -0.7794 H   0  0  0  0  0  0  0  0  0  0  0  0
   -3.9525    0.9130    0.9302 H   0  0  0  0  0  0  0  0  0  0  0  0
    0.1738    3.1954   -1.9760 H   0  0  0  0  0  0  0  0  0  0  0  0
    0.3233    1.6371   -1.7852 H   0  0  0  0  0  0  0  0  0  0  0  0
   -3.5618   -0.2128   -2.6801 H   0  0  0  0  0  0  0  0  0  0  0  0
   -3.1379    0.3803   -1.2571 H   0  0  0  0  0  0  0  0  0  0  0  0
   -1.4272   -2.7549   -0.4069 H   0  0  0  0  0  0  0  0  0  0  0  0
   -0.3460   -3.0761    0.6568 H   0  0  0  0  0  0  0  0  0  0  0  0
    1.7457   -3.1601   -2.2530 H   0  0  0  0  0  0  0  0  0  0  0  0
    0.7962   -3.5110   -1.0914 H   0  0  0  0  0  0  0  0  0  0  0  0
    5.0575    1.6038   -0.6677 H   0  0  0  0  0  0  0  0  0  0  0  0
    3.6860    1.8485    0.0438 H   0  0  0  0  0  0  0  0  0  0  0  0
    2.5350    3.8179    0.6808 H   0  0  0  0  0  0  0  0  0  0  0  0
    1.7741    2.7702   -0.1936 H   0  0  0  0  0  0  0  0  0  0  0  0
    4.4274   -0.0429    0.9307 H   0  0  0  0  0  0  0  0  0  0  0  0
    4.0383   -1.5349    1.1445 H   0  0  0  0  0  0  0  0  0  0  0  0
    2.9191   -1.2183    4.6216 H   0  0  0  0  0  0  0  0  0  0  0  0
    3.5639   -1.2764    3.2168 H   0  0  0  0  0  0  0  0  0  0  0  0
    3.5174   -3.6961    0.9924 H   0  0  0  0  0  0  0  0  0  0  0  0
    2.7590   -3.4777   -0.3849 H   0  0  0  0  0  0  0  0  0  0  0  0
    2.8466    0.0483    5.9319 O   0  0  0  0  0  0  0  0  0  0  0  0
    3.2709   -0.0098    6.8004 H   0  0  0  0  0  0  0  0  0  0  0  0
    2.1357    0.6903    6.0084 H   0  0  0  0  0  0  0  0  0  0  0  0
   -1.9332   -2.0856    7.0441 O   0  0  0  0  0  0  0  0  0  0  0  0
   -1.6128   -1.9896    6.1396 H   0  0  0  0  0  0  0  0  0  0  0  0
   -2.2579   -2.9852    7.1379 H   0  0  0  0  0  0  0  0  0  0  0  0
    0.4208    5.3316    4.7446 O   0  0  0  0  0  0  0  0  0  0  0  0
   -0.0411    4.5384    4.4502 H   0  0  0  0  0  0  0  0  0  0  0  0
   -0.1429    5.7539    5.4084 H   0  0  0  0  0  0  0  0  0  0  0  0
    3.5647   -4.2464    2.7272 O   0  0  0  0  0  0  0  0  0  0  0  0
    4.0310   -4.8330    3.3220 H   0  0  0  0  0  0  0  0  0  0  0  0
    3.3301   -3.4482    3.2398 H   0  0  0  0  0  0  0  0  0  0  0  0
   -5.9085    1.9022    3.3349 O   0  0  0  0  0  0  0  0  0  0  0  0
   -5.2569    1.4202    2.7525 H   0  0  0  0  0  0  0  0  0  0  0  0
   -6.6190    1.2764    3.4990 H   0  0  0  0  0  0  0  0  0  0  0  0
    7.6025    5.8835    3.3134 O   0  0  0  0  0  0  0  0  0  0  0  0
    7.1178    5.1997    3.8065 H   0  0  0  0  0  0  0  0  0  0  0  0
    7.0400    6.1074    2.5648 H   0  0  0  0  0  0  0  0  0  0  0  0
   -1.2352   -6.5959    4.2242 O   0  0  0  0  0  0  0  0  0  0  0  0
   -0.4073   -6.1253    4.0798 H   0  0  0  0  0  0  0  0  0  0  0  0
   -1.9051   -6.1567    3.6898 H   0  0  0  0  0  0  0  0  0  0  0  0
   -3.2635    6.6189    0.7720 O   0  0  0  0  0  0  0  0  0  0  0  0
   -3.1774    5.8591    1.3577 H   0  0  0  0  0  0  0  0  0  0  0  0
   -3.3474    7.3942    1.3469 H   0  0  0  0  0  0  0  0  0  0  0  0
    5.6358   -2.6401   -1.2004 O   0  0  0  0  0  0  0  0  0  0  0  0
    6.2384   -2.2201   -0.5680 H   0  0  0  0  0  0  0  0  0  0  0  0
    4.8350   -2.8638   -0.6779 H   0  0  0  0  0  0  0  0  0  0  0  0
   -5.3259   -1.9633    0.9770 O   0  0  0  0  0  0  0  0  0  0  0  0
   -4.5357   -2.2295    0.4390 H   0  0  0  0  0  0  0  0  0  0  0  0
   -6.0517   -1.8727    0.3555 H   0  0  0  0  0  0  0  0  0  0  0  0
    2.7731    5.6381    0.8459 O   0  0  0  0  0  0  0  0  0  0  0  0
    2.9829    6.2974    0.1809 H   0  0  0  0  0  0  0  0  0  0  0  0
    2.3142    6.1044    1.5668 H   0  0  0  0  0  0  0  0  0  0  0  0
    1.4689   -6.3958   -2.3282 O   0  0  0  0  0  0  0  0  0  0  0  0
    1.5303   -5.4375   -2.0899 H   0  0  0  0  0  0  0  0  0  0  0  0
    0.9921   -6.8150   -1.6068 H   0  0  0  0  0  0  0  0  0  0  0  0
   -5.3974    2.8645   -2.3961 O   0  0  0  0  0  0  0  0  0  0  0  0
   -5.0288    3.6497   -2.8120 H   0  0  0  0  0  0  0  0  0  0  0  0
   -6.2159    3.1514   -1.9575 H   0  0  0  0  0  0  0  0  0  0  0  0
    6.4615    2.6683   -1.2423 O   0  0  0  0  0  0  0  0  0  0  0  0
    7.3551    2.4712   -0.9212 H   0  0  0  0  0  0  0  0  0  0  0  0
    6.4258    3.6193   -1.3715 H   0  0  0  0  0  0  0  0  0  0  0  0
   -3.6974   -4.6625   -2.2066 O   0  0  0  0  0  0  0  0  0  0  0  0
   -2.9445   -4.7772   -2.7958 H   0  0  0  0  0  0  0  0  0  0  0  0
   -4.4809   -4.6535   -2.7837 H   0  0  0  0  0  0  0  0  0  0  0  0
   -0.3627    4.7706   -2.8348 O   0  0  0  0  0  0  0  0  0  0  0  0
    0.2466    5.2524   -3.4005 H   0  0  0  0  0  0  0  0  0  0  0  0
   -0.8483    5.4394   -2.3255 H   0  0  0  0  0  0  0  0  0  0  0  0
    1.9579   -1.7522   -3.1827 O   0  0  0  0  0  0  0  0  0  0  0  0
    2.8589   -1.8522   -3.5283 H   0  0  0  0  0  0  0  0  0  0  0  0
    2.0692   -1.2070   -2.3645 H   0  0  0  0  0  0  0  0  0  0  0  0
   -4.8776    0.4323   -3.7963 O   0  0  0  0  0  0  0  0  0  0  0  0
   -4.6390    0.7083   -4.6965 H   0  0  0  0  0  0  0  0  0  0  0  0
   -5.1186    1.2445   -3.3220 H   0  0  0  0  0  0  0  0  0  0  0  0
    3.8183    2.6524   -5.8771 O   0  0  0  0  0  0  0  0  0  0  0  0
    3.6097    2.4122   -4.9675 H   0  0  0  0  0  0  0  0  0  0  0  0
    3.9213    3.6154   -5.8898 H   0  0  0  0  0  0  0  0  0  0  0  0
   -1.5800   -3.4897   -7.0841 O   0  0  0  0  0  0  0  0  0  0  0  0
   -0.6925   -3.8276   -7.2829 H   0  0  0  0  0  0  0  0  0  0  0  0
   -1.4484   -2.7227   -6.5160 H   0  0  0  0  0  0  0  0  0  0  0  0
   -1.5104    1.9634   -7.0363 O   0  0  0  0  0  0  0  0  0  0  0  0
   -1.0992    1.6645   -7.8527 H   0  0  0  0  0  0  0  0  0  0  0  0
   -0.8553    1.8594   -6.3376 H   0  0  0  0  0  0  0  0  0  0  0  0
    3.9933   -0.2283    8.5093 O   0  0  0  0  0  0  0  0  0  0  0  0
    4.7155   -0.8493    8.6446 H   0  0  0  0  0  0  0  0  0  0  0  0
    3.4013   -0.3094    9.2629 H   0  0  0  0  0  0  0  0  0  0  0  0
   -1.1628   -0.4916    9.2649 O   0  0  0  0  0  0  0  0  0  0  0  0
   -1.3800   -1.0681    8.5120 H   0  0  0  0  0  0  0  0  0  0  0  0
   -1.8533    0.1765    9.2907 H   0  0  0  0  0  0  0  0  0  0  0  0
   -1.2777    6.6262    6.6313 O   0  0  0  0  0  0  0  0  0  0  0  0
   -2.1380    6.3067    6.9208 H   0  0  0  0  0  0  0  0  0  0  0  0
   -1.2354    7.5619    6.8427 H   0  0  0  0  0  0  0  0  0  0  0  0
    2.7773   -5.2524    7.7955 O   0  0  0  0  0  0  0  0  0  0  0  0
    2.2950   -6.0609    7.9897 H   0  0  0  0  0  0  0  0  0  0  0  0
    2.1210   -4.5560    7.6841 H   0  0  0  0  0  0  0  0  0  0  0  0
   -4.5734    2.6241    5.6445 O   0  0  0  0  0  0  0  0  0  0  0  0
   -5.0747    2.4711    4.8191 H   0  0  0  0  0  0  0  0  0  0  0  0
   -3.7775    2.0881    5.5598 H   0  0  0  0  0  0  0  0  0  0  0  0
    5.9080    3.9004    4.4205 O   0  0  0  0  0  0  0  0  0  0  0  0
    5.0393    4.1150    4.7744 H   0  0  0  0  0  0  0  0  0  0  0  0
    5.8210    3.0545    3.9666 H   0  0  0  0  0  0  0  0  0  0  0  0
   -1.8962   -7.7099    6.7200 O   0  0  0  0  0  0  0  0  0  0  0  0
   -2.4387   -8.4770    6.5189 H   0  0  0  0  0  0  0  0  0  0  0  0
   -1.6366   -7.3351    5.8582 H   0  0  0  0  0  0  0  0  0  0  0  0
   -3.3914    8.7726    2.6169 O   0  0  0  0  0  0  0  0  0  0  0  0
   -2.6511    9.3459    2.8360 H   0  0  0  0  0  0  0  0  0  0  0  0
   -4.0572    8.8968    3.2984 H   0  0  0  0  0  0  0  0  0  0  0  0
    6.9176   -1.5966    1.0976 O   0  0  0  0  0  0  0  0  0  0  0  0
    7.2998   -2.0960    1.8210 H   0  0  0  0  0  0  0  0  0  0  0  0
    6.0677   -1.2267    1.4321 H   0  0  0  0  0  0  0  0  0  0  0  0
   -5.8964   -3.6938    3.0955 O   0  0  0  0  0  0  0  0  0  0  0  0
   -5.6966   -3.0972    2.3481 H   0  0  0  0  0  0  0  0  0  0  0  0
   -5.5653   -3.2473    3.8800 H   0  0  0  0  0  0  0  0  0  0  0  0
    1.6128    7.0319    2.9380 O   0  0  0  0  0  0  0  0  0  0  0  0
    2.1571    7.5902    3.4990 H   0  0  0  0  0  0  0  0  0  0  0  0
    1.1477    6.4191    3.5423 H   0  0  0  0  0  0  0  0  0  0  0  0
    3.8710   -7.4888   -3.1735 O   0  0  0  0  0  0  0  0  0  0  0  0
    4.4443   -7.2121   -2.4516 H   0  0  0  0  0  0  0  0  0  0  0  0
    2.9863   -7.1295   -2.9592 H   0  0  0  0  0  0  0  0  0  0  0  0
   -7.5970    3.8250   -0.9374 O   0  0  0  0  0  0  0  0  0  0  0  0
   -7.3549    4.5005   -0.2959 H   0  0  0  0  0  0  0  0  0  0  0  0
   -8.1977    3.2178   -0.4942 H   0  0  0  0  0  0  0  0  0  0  0  0
    9.0579    2.2567   -0.2314 O   0  0  0  0  0  0  0  0  0  0  0  0
    9.6595    1.5865   -0.5672 H   0  0  0  0  0  0  0  0  0  0  0  0
    9.2176    2.3424    0.7136 H   0  0  0  0  0  0  0  0  0  0  0  0
   -3.7192   -6.9424   -0.5635 O   0  0  0  0  0  0  0  0  0  0  0  0
   -4.5185   -6.8916   -0.0337 H   0  0  0  0  0  0  0  0  0  0  0  0
   -3.7024   -6.1273   -1.1009 H   0  0  0  0  0  0  0  0  0  0  0  0
   -1.6078    6.8821   -1.4480 O   0  0  0  0  0  0  0  0  0  0  0  0
   -1.1247    7.6738   -1.1960 H   0  0  0  0  0  0  0  0  0  0  0  0
   -2.2438    6.7229   -0.7274 H   0  0  0  0  0  0  0  0  0  0  0  0
    4.6464   -2.2114   -3.7136 O   0  0  0  0  0  0  0  0  0  0  0  0
    4.9595   -2.9795   -4.1943 H   0  0  0  0  0  0  0  0  0  0  0  0
    5.0455   -2.2763   -2.8212 H   0  0  0  0  0  0  0  0  0  0  0  0
   -9.7871   -1.1307   -2.6553 O   0  0  0  0  0  0  0  0  0  0  0  0
   -9.2873   -1.8947   -2.9610 H   0  0  0  0  0  0  0  0  0  0  0  0
   -9.4529   -0.3678   -3.1375 H   0  0  0  0  0  0  0  0  0  0  0  0
    6.8327    8.3311   -1.6996 O   0  0  0  0  0  0  0  0  0  0  0  0
    7.7611    8.1077   -1.5806 H   0  0  0  0  0  0  0  0  0  0  0  0
    6.6248    9.0246   -1.0667 H   0  0  0  0  0  0  0  0  0  0  0  0
   -2.3167   -8.7823   -5.4343 O   0  0  0  0  0  0  0  0  0  0  0  0
   -1.9753   -8.9429   -4.5484 H   0  0  0  0  0  0  0  0  0  0  0  0
   -1.7659   -8.0969   -5.8268 H   0  0  0  0  0  0  0  0  0  0  0  0
   -3.9822    6.9601   -6.2909 O   0  0  0  0  0  0  0  0  0  0  0  0
   -3.2944    6.2878   -6.2383 H   0  0  0  0  0  0  0  0  0  0  0  0
   -4.0209    7.3895   -5.4308 H   0  0  0  0  0  0  0  0  0  0  0  0
    8.9452    0.8454   -5.3103 O   0  0  0  0  0  0  0  0  0  0  0  0
    8.4753    0.1715   -4.8076 H   0  0  0  0  0  0  0  0  0  0  0  0
    8.3249    1.5683   -5.4489 H   0  0  0  0  0  0  0  0  0  0  0  0
   -5.6554   -4.7365   -4.1659 O   0  0  0  0  0  0  0  0  0  0  0  0
   -5.6296   -4.0383   -4.8279 H   0  0  0  0  0  0  0  0  0  0  0  0
   -5.7680   -5.5703   -4.6318 H   0  0  0  0  0  0  0  0  0  0  0  0
    4.2204    5.4764   -5.7656 O   0  0  0  0  0  0  0  0  0  0  0  0
    4.7381    5.8813   -5.0621 H   0  0  0  0  0  0  0  0  0  0  0  0
    4.3063    6.0334   -6.5435 H   0  0  0  0  0  0  0  0  0  0  0  0
    1.1428   -4.2799   -7.4120 O   0  0  0  0  0  0  0  0  0  0  0  0
    1.5635   -4.8701   -6.7779 H   0  0  0  0  0  0  0  0  0  0  0  0
    1.7993   -3.6244   -7.6679 H   0  0  0  0  0  0  0  0  0  0  0  0
   -4.1651    1.3888   -6.3608 O   0  0  0  0  0  0  0  0  0  0  0  0
   -3.2350    1.5887   -6.5726 H   0  0  0  0  0  0  0  0  0  0  0  0
   -4.6976    1.9368   -6.9425 H   0  0  0  0  0  0  0  0  0  0  0  0
    3.5849    0.8146   -8.0027 O   0  0  0  0  0  0  0  0  0  0  0  0
    3.6020    1.5074   -7.3199 H   0  0  0  0  0  0  0  0  0  0  0  0
    4.3424    0.2526   -7.8137 H   0  0  0  0  0  0  0  0  0  0  0  0
  6  8  1  0  0  0  0
  6  9  1  0  0  0  0
  7 10  1  0  0  0  0
  7 11  1  0  0  0  0
  2 12  1  0  0  0  0
  2 13  1  0  0  0  0
  4 14  1  0  0  0  0
  4 15  1  0  0  0  0
  3 16  1  0  0  0  0
  3 17  1  0  0  0  0
  5 18  1  0  0  0  0
  5 19  1  0  0  0  0
 25 32  1  0  0  0  0
 25 33  1  0  0  0  0
 20 34  1  0  0  0  0
 24 36  1  0  0  0  0
 20 37  1  0  0  0  0
 29 38  1  0  0  0  0
 29 39  1  0  0  0  0
 22 40  1  0  0  0  0
 22 41  1  0  0  0  0
 23 42  1  0  0  0  0
 23 43  1  0  0  0  0
 31 44  1  0  0  0  0
 31 45  1  0  0  0  0
 30 46  1  0  0  0  0
 30 47  1  0  0  0  0
 28 48  1  0  0  0  0
 28 49  1  0  0  0  0
 27 50  1  0  0  0  0
 27 51  1  0  0  0  0
 26 52  1  0  0  0  0
 26 53  1  0  0  0  0
 21 54  1  0  0  0  0
 21 55  1  0  0  0  0
 56 57  1  0  0  0  0
 56 58  1  0  0  0  0
 59 60  1  0  0  0  0
 59 61  1  0  0  0  0
 62 63  1  0  0  0  0
 62 64  1  0  0  0  0
 65 66  1  0  0  0  0
 65 67  1  0  0  0  0
 68 69  1  0  0  0  0
 68 70  1  0  0  0  0
 71 72  1  0  0  0  0
 71 73  1  0  0  0  0
 74 75  1  0  0  0  0
 74 76  1  0  0  0  0
 77 78  1  0  0  0  0
 77 79  1  0  0  0  0
 80 81  1  0  0  0  0
 80 82  1  0  0  0  0
 83 84  1  0  0  0  0
 83 85  1  0  0  0  0
 86 87  1  0  0  0  0
 86 88  1  0  0  0  0
 89 90  1  0  0  0  0
 89 91  1  0  0  0  0
 92 93  1  0  0  0  0
 92 94  1  0  0  0  0
 95 96  1  0  0  0  0
 95 97  1  0  0  0  0
 98 99  1  0  0  0  0
 98100  1  0  0  0  0
101102  1  0  0  0  0
101103  1  0  0  0  0
104105  1  0  0  0  0
104106  1  0  0  0  0
107108  1  0  0  0  0
107109  1  0  0  0  0
110111  1  0  0  0  0
110112  1  0  0  0  0
113114  1  0  0  0  0
113115  1  0  0  0  0
116117  1  0  0  0  0
116118  1  0  0  0  0
119120  1  0  0  0  0
119121  1  0  0  0  0
122123  1  0  0  0  0
122124  1  0  0  0  0
125126  1  0  0  0  0
125127  1  0  0  0  0
128129  1  0  0  0  0
128130  1  0  0  0  0
131132  1  0  0  0  0
131133  1  0  0  0  0
134135  1  0  0  0  0
134136  1  0  0  0  0
137138  1  0  0  0  0
137139  1  0  0  0  0
140141  1  0  0  0  0
140142  1  0  0  0  0
143144  1  0  0  0  0
143145  1  0  0  0  0
146147  1  0  0  0  0
146148  1  0  0  0  0
149150  1  0  0  0  0
149151  1  0  0  0  0
152153  1  0  0  0  0
152154  1  0  0  0  0
155156  1  0  0  0  0
155157  1  0  0  0  0
158159  1  0  0  0  0
158160  1  0  0  0  0
161162  1  0  0  0  0
161163  1  0  0  0  0
164165  1  0  0  0  0
164166  1  0  0  0  0
167168  1  0  0  0  0
167169  1  0  0  0  0
170171  1  0  0  0  0
170172  1  0  0  0  0
173174  1  0  0  0  0
173175  1  0  0  0  0
176177  1  0  0  0  0
176178  1  0  0  0  0
179180  1  0  0  0  0
179181  1  0  0  0  0
182183  1  0  0  0  0
182184  1  0  0  0  0
185186  1  0  0  0  0
185187  1  0  0  0  0
188189  1  0  0  0  0
188190  1  0  0  0  0
191192  1  0  0  0  0
191193  1  0  0  0  0
194195  1  0  0  0  0
194196  1  0  0  0  0
197198  1  0  0  0  0
197199  1  0  0  0  0
M  END
