109
Molecule with added oxygen and hydrogen atoms
Fe         0.00007        0.00004        0.00004
O         -1.60323       -0.34615       -1.21837
H         -2.21872       -1.10226       -1.16356
O          1.19507       -1.06353       -1.27095
H          2.15089       -1.23121       -1.16228
O          0.41978        1.71011       -1.03639
H          0.07910        2.60393       -0.84009
O          1.60311        0.34576        1.21872
H          1.89587       -0.21490        1.96268
O         -1.19604        1.06370        1.26989
H         -2.15138        1.23264        1.15901
O         -0.41882       -1.70995        1.03701
H         -0.07681       -2.60347        0.84163
H         -0.99786       -1.78483        1.81971
H          0.91585       -1.49817       -2.09960
H         -1.89585        0.21375       -1.96295
H         -0.91837        1.49713        2.09969
H          0.99826        1.78478       -1.81953
H          2.21829        1.10218        1.16487
O 1.7983952422949017 -2.3684210526319023e-05 4.124975263157895
H 2.6983952422949016 -2.3684210526319023e-05 4.124975263157895
H 1.5053839032834606 0.8509430338288588 4.124975263157895
O -2.194798089350553 -2.010600432321086 3.3749752631578946
H -1.2947980893505533 -2.010600432321086 3.3749752631578946
H -2.4878094283619943 -1.159633714281701 3.3749752631578946
O 0.31950363077592203 3.6410291661258842 2.624975263157894
H 1.2195036307759222 3.6410291661258842 2.624975263157894
H 0.026492291764481035 4.491995884165269 2.624975263157894
O 2.4889400612183548 -3.246459482885428 1.8749752631578946
H 3.3889400612183547 -3.246459482885428 1.8749752631578946
H 2.1959287222069137 -2.3954927648460425 1.8749752631578946
O -4.290542874536448 0.7589055829471154 1.1249752631578946
H -3.390542874536448 0.7589055829471154 1.1249752631578946
H -4.583554213547889 1.6098723009865006 1.1249752631578946
O 3.7836506030797854 2.406851566330432 0.374975263157895
H 4.683650603079785 2.406851566330432 0.374975263157895
H 3.4906392640683443 3.257818284369817 0.374975263157895
O -1.16419756696373 -4.330625932808942 -0.3750247368421051
H -0.26419756696372987 -4.330625932808942 -0.3750247368421051
H -1.457208905975171 -3.4796592147695566 -0.3750247368421051
O -2.0082624636703557 3.866683426259884 -1.125024736842105
H -1.1082624636703557 3.866683426259884 -1.125024736842105
H -2.3012738026817967 4.717650144299269 -1.125024736842105
O 3.8425030228324575 -1.4033148098621921 -1.875024736842106
H 4.742503022832458 -1.4033148098621921 -1.875024736842106
H 3.5494916838210164 -0.552348091822807 -1.875024736842106
O -3.378568843652354 -1.394630625841411 -2.6250247368421045
H -2.4785688436523543 -1.394630625841411 -2.6250247368421045
H -3.6715801826637953 -0.5436639078020258 -2.6250247368421045
O 1.2615234052760853 2.695867409765875 -3.3750247368421054
H 2.1615234052760854 2.695867409765875 -3.3750247368421054
H 0.9685120662646443 3.54683412780526 -3.3750247368421054
O 0.5382015428739434 -1.7160275716804951 -4.125024736842105
H 1.4382015428739434 -1.7160275716804951 -4.125024736842105
H 0.2451902038625024 -0.86506085364111 -4.125024736842105
O 2.323127906486116 0.14571117185327181 6.138864152046782
H 3.223127906486116 0.14571117185327181 6.138864152046782
H 2.030116567474675 0.9966778898926569 6.138864152046782
O -2.4626081298046656 -2.2813323383716453 5.416641929824561
H -1.5626081298046657 -2.2813323383716453 5.416641929824561
H -2.7556194688161066 -1.4303656203322601 5.416641929824561
O 0.579814080230656 4.6242940256167 4.694419707602338
H 1.479814080230656 4.6242940256167 4.694419707602338
H 0.28680274121921495 5.475260743656085 4.694419707602338
O 3.3172088686085126 -3.9373975185025265 3.9721974853801165
H 4.2172088686085125 -3.9373975185025265 3.9721974853801165
H 3.0241975295970716 -3.086430800463141 3.9721974853801165
O -5.356349046670759 1.126210132263121 3.249975263157895
H -4.456349046670758 1.126210132263121 3.249975263157895
H -5.6493603856822 1.9771768503025062 3.249975263157895
O 5.2394680488375975 3.3598267753609243 2.527753040935672
H 6.139468048837598 3.3598267753609243 2.527753040935672
H 4.9464567098261565 4.21079349340031 2.527753040935672
O -1.4342540971865716 -5.884401907518918 1.8055308187134496
H -0.5342540971865716 -5.884401907518918 1.8055308187134496
H -1.7272654361980126 -5.033435189479533 1.8055308187134496
O -2.767227195772587 5.833444858554756 1.0833085964912275
H -1.8672271957725872 5.833444858554756 1.0833085964912275
H -3.060238534784028 6.684411576594141 1.0833085964912275
O 6.2829247028739275 -2.080596295729907 0.3610863742690056
H 7.182924702873928 -2.080596295729907 0.3610863742690056
H 5.989913363862486 -1.229629577690522 0.3610863742690056
O -5.812201202190358 -2.330575184955582 -0.36113584795321657
H -4.912201202190357 -2.330575184955582 -0.36113584795321657
H -6.105212541201799 -1.4796084669161969 -0.36113584795321657
O 2.903231378577343 5.950640408807167 -1.0833580701754388
H 3.803231378577343 5.950640408807167 -1.0833580701754388
H 2.610220039565902 6.801607126846552 -1.0833580701754388
O 2.055552523115192 -5.8122754997904815 -1.805580292397661
H 2.955552523115192 -5.8122754997904815 -1.805580292397661
H 1.762541184103751 -4.961308781751097 -1.805580292397661
O -4.994422058673774 3.148315419330922 -2.527802514619883
H -4.094422058673774 3.148315419330922 -2.527802514619883
H -5.2874333976852155 3.999282137370307 -2.527802514619883
O 5.684634965537387 1.354402293385985 -3.2500247368421067
H 6.584634965537387 1.354402293385985 -3.2500247368421067
H 5.391623626525946 2.20536901142537 -3.2500247368421067
O -2.7722989388715553 -4.063253868373829 -3.9722469590643277
H -1.8722989388715554 -4.063253868373829 -3.9722469590643277
H -3.0653102778829964 -3.2122871503344443 -3.9722469590643277
O -0.3909922209790247 4.604229655660204 -4.694469181286551
H 0.5090077790209753 4.604229655660204 -4.694469181286551
H -0.6840035599904657 5.4551963736995885 -4.694469181286551
O 2.93415739469302 -2.1697934042741895 -5.416691403508772
H 3.83415739469302 -2.1697934042741895 -5.416691403508772
H 2.641146055681579 -1.3188266862348044 -5.416691403508772
O -1.947772043416278 0.05744133209708256 -6.138913625730995
H -1.0477720434162778 0.05744133209708256 -6.138913625730995
H -2.240783382427719 0.9084080501364677 -6.138913625730995
