109
Molecule with added oxygen and hydrogen atoms
V         -0.00000        0.00000        0.00000
O         -1.42410        0.00688       -1.61821
H         -2.22260        0.54959       -1.67838
O         -1.12718       -1.55194        0.98362
H         -0.91421       -1.96862        1.83025
O          1.16298       -1.49563       -1.02818
H          1.87940       -1.33371       -1.65770
O          1.42412       -0.00690        1.61819
H          1.38400        0.53041        2.42158
O          1.12716        1.55196       -0.98362
H          0.91425        1.96855       -1.83029
O         -1.16298        1.49564        1.02819
H         -1.87935        1.33372        1.65775
H         -1.06618        2.45475        0.94767
H         -1.94121       -1.96297        0.66087
H         -1.38398       -0.53050       -2.42155
H          1.94111        1.96309       -0.66080
H          1.06614       -2.45474       -0.94771
H          2.22264       -0.54958        1.67830
O 1.5986110340866961 3.5059674461847047e-17 3.6666656140350877
H 2.498611034086696 3.5059674461847047e-17 3.6666656140350877
H 1.305599695075255 0.8509667180393852 3.6666656140350877
O -1.9508941495981529 -1.7871793316538311 2.999998947368421
H -1.050894149598153 -1.7871793316538311 2.999998947368421
H -2.243905488609594 -0.936212613614446 2.999998947368421
O 0.2840407127364921 3.236491422521254 2.3333322807017542
H 1.184040712736492 3.236491422521254 2.3333322807017542
H -0.008970626274948879 4.087458140560639 2.3333322807017542
O 2.2124286509075435 -2.885720709933246 1.6666656140350877
H 3.1124286509075434 -2.885720709933246 1.6666656140350877
H 1.9194173118961024 -2.0347539918938606 1.6666656140350877
O -3.813778403096725 0.6746037930290149 0.9999989473684211
H -2.913778403096725 0.6746037930290149 0.9999989473684211
H -4.106789742108166 1.5255705110684001 0.9999989473684211
O 3.363282465895481 2.1394446671475182 0.33333228070175464
H 4.2632824658954815 2.1394446671475182 0.33333228070175464
H 3.07027112688404 2.9904113851869036 0.33333228070175464
O -1.0348047963654206 -3.8494242209763687 -0.3333343859649121
H -0.13480479636542053 -3.8494242209763687 -0.3333343859649121
H -1.3278161353768616 -2.9984575029369838 -0.3333343859649121
O -1.785084704549088 3.4370729870848087 -1.0000010526315786
H -0.885084704549088 3.4370729870848087 -1.0000010526315786
H -2.078096043560529 4.288039705124194 -1.0000010526315786
O 3.415595727897857 -1.2473698894681473 -1.6666677192982462
H 4.315595727897857 -1.2473698894681473 -1.6666677192982462
H 3.1225843888864158 -0.39640317142876214 -1.6666677192982462
O -3.0031348200886425 -1.2396506147830084 -2.3333343859649114
H -2.1031348200886426 -1.2396506147830084 -2.3333343859649114
H -3.2961461591000836 -0.38868389674362325 -2.3333343859649114
O 1.121391623403304 2.3963476390901346 -3.000001052631579
H 2.021391623403304 2.3963476390901346 -3.000001052631579
H 0.8283802843918628 3.24731435712952 -3.000001052631579
O 0.4784388568236223 -1.5253367888621945 -3.6666677192982458
H 1.3784388568236223 -1.5253367888621945 -3.6666677192982458
H 0.1854275178121813 -0.6743700708228093 -3.6666677192982458
O 2.152792967566932 0.15017159047382592 5.666665614035087
H 3.052792967566932 0.15017159047382592 5.666665614035087
H 1.8597816285554911 1.001138308513211 5.666665614035087
O -2.2648095274707125 -2.0901762651184055 4.999998947368421
H -1.3648095274707126 -2.0901762651184055 4.999998947368421
H -2.5578208664821536 -1.2392095470790203 4.999998947368421
O 0.5435802048695846 4.284248070870837 4.333332280701755
H 1.4435802048695847 4.284248070870837 4.333332280701755
H 0.2505688658581436 5.135214788910222 4.333332280701755
O 3.0704061633722213 -3.6188518160084495 3.6666656140350877
H 3.970406163372221 -3.6188518160084495 3.6666656140350877
H 2.7773948243607802 -2.7678850979690646 3.6666656140350877
O -4.93595498919326 1.0552475539290715 2.9999989473684217
H -4.03595498919326 1.0552475539290715 2.9999989473684217
H -5.228966328204701 1.9062142719684567 2.9999989473684217
O 4.844799252814454 3.1170475321731974 2.3333322807017542
H 5.744799252814454 3.1170475321731974 2.3333322807017542
H 4.551787913803013 3.9680142502125824 2.3333322807017542
O -1.3155596512078562 -5.416086636638965 1.6666656140350877
H -0.4155596512078562 -5.416086636638965 1.6666656140350877
H -1.6085709902192973 -4.56511991859958 1.6666656140350877
O -2.5459963575949476 5.400387301275196 0.999998947368421
H -1.6459963575949477 5.400387301275196 0.999998947368421
H -2.8390076966063886 6.251354019314581 0.999998947368421
O 5.80799001038645 -1.9048814565260315 0.33333228070175464
H 6.7079900103864505 -1.9048814565260315 0.33333228070175464
H 5.514978671375009 -1.0539147384866463 0.33333228070175464
O -5.356741594288274 -2.1356312004266544 -0.333334385964912
H -4.456741594288274 -2.1356312004266544 -0.333334385964912
H -5.649752933299715 -1.2846644823872693 -0.333334385964912
O 2.688273095651142 5.508567809200498 -1.0000010526315786
H 3.5882730956511417 5.508567809200498 -1.0000010526315786
H 2.3952617566397008 6.359534527239883 -1.0000010526315786
O 1.9058003059937716 -5.3495084141204075 -1.666667719298245
H 2.8058003059937717 -5.3495084141204075 -1.666667719298245
H 1.6127889669823305 -4.4985416960810225 -1.666667719298245
O -4.601868538734505 2.9218062804531955 -2.333334385964912
H -3.7018685387345047 2.9218062804531955 -2.333334385964912
H -4.894879877745946 3.772772998492581 -2.333334385964912
O 5.255722560537337 1.2658864718886382 -3.00000105263158
H 6.155722560537337 1.2658864718886382 -3.00000105263158
H 4.962711221525896 2.1168531899280234 -3.00000105263158
O -2.55067796660938 -3.735026908197344 -3.6666677192982453
H -1.65067796660938 -3.735026908197344 -3.6666677192982453
H -2.843689305620821 -2.8840601901579586 -3.6666677192982453
O -0.35254868855473603 4.265727113987917 -4.333334385964913
H 0.5474513114452639 4.265727113987917 -4.333334385964913
H -0.645560027566177 5.116693832027302 -4.333334385964913
O 2.716820187450228 -1.9872172490284463 -5.000001052631579
H 3.616820187450228 -1.9872172490284463 -5.000001052631579
H 2.423808848438787 -1.1362505309890611 -5.000001052631579
O -1.7895762169583544 0.06869173839118968 -5.666667719298245
H -0.8895762169583544 0.06869173839118968 -5.666667719298245
H -2.0825875559697953 0.9196584564305749 -5.666667719298245
