109
Molecule with added oxygen and hydrogen atoms
V          0.00000       -0.00001        0.00000
O          1.22569        1.14548       -1.17084
H          2.20204        1.14810       -1.16420
O         -0.38181        1.63775        1.16517
H         -1.06308        1.70851        1.86110
O         -1.60678        0.48472       -1.16995
H         -2.00690       -0.07177       -1.86544
O         -1.22577       -1.14559        1.17066
H         -0.94553       -1.76892        1.86807
O          0.38187       -1.63781       -1.16505
H          1.06320       -1.70862       -1.86093
O          1.60681       -0.48453        1.17001
H          2.00673        0.07204        1.86554
H          2.09773       -1.32850        1.16532
H          0.10398        2.48465        1.15708
H          0.94537        1.76855       -1.86845
H         -0.10395       -2.48470       -1.15696
H         -2.09754        1.32879       -1.16519
H         -2.20213       -1.14808        1.16404
O 1.5986068235603805 3.157894736816047e-06 3.6666656140350877
H 2.4986068235603804 3.157894736816047e-06 3.6666656140350877
H 1.3055954845489395 0.850969875934122 3.6666656140350877
O -1.9508983601244685 -1.7871761737590943 2.999998947368421
H -1.0508983601244686 -1.7871761737590943 2.999998947368421
H -2.2439096991359095 -0.9362094557197091 2.999998947368421
O 0.28403650221017634 3.236494580415991 2.3333322807017542
H 1.1840365022101764 3.236494580415991 2.3333322807017542
H -0.008974836801264652 4.087461298455376 2.3333322807017542
O 2.2124244403812274 -2.885717552038509 1.6666656140350877
H 3.1124244403812273 -2.885717552038509 1.6666656140350877
H 1.9194131013697864 -2.034750833999124 1.6666656140350877
O -3.813782613623041 0.6746069509237517 0.9999989473684211
H -2.913782613623041 0.6746069509237517 0.9999989473684211
H -4.106793952634482 1.525573668963137 0.9999989473684211
O 3.363278255369165 2.139447825042255 0.33333228070175464
H 4.2632782553691655 2.139447825042255 0.33333228070175464
H 3.070266916357724 2.9904145430816405 0.33333228070175464
O -1.0348090068917362 -3.849421063081632 -0.3333343859649121
H -0.13480900689173614 -3.849421063081632 -0.3333343859649121
H -1.3278203459031772 -2.998454345042247 -0.3333343859649121
O -1.7850889150754037 3.4370761449795455 -1.0000010526315786
H -0.8850889150754037 3.4370761449795455 -1.0000010526315786
H -2.0781002540868445 4.288042863018931 -1.0000010526315786
O 3.4155915173715408 -1.2473667315734105 -1.6666677192982462
H 4.315591517371541 -1.2473667315734105 -1.6666677192982462
H 3.1225801783600997 -0.3964000135340253 -1.6666677192982462
O -3.0031390306149586 -1.2396474568882716 -2.3333343859649114
H -2.1031390306149587 -1.2396474568882716 -2.3333343859649114
H -3.2961503696263996 -0.38868073884888643 -2.3333343859649114
O 1.1213874128769883 2.3963507969848714 -3.000001052631579
H 2.0213874128769884 2.3963507969848714 -3.000001052631579
H 0.8283760738655472 3.247317515024257 -3.000001052631579
O 0.47843464629730653 -1.5253336309674577 -3.6666677192982458
H 1.3784346462973065 -1.5253336309674577 -3.6666677192982458
H 0.18542330728586554 -0.6743669129280725 -3.6666677192982458
O 2.152788757040616 0.1501747483685627 5.666665614035087
H 3.052788757040616 0.1501747483685627 5.666665614035087
H 1.859777418029175 1.0011414664079479 5.666665614035087
O -2.2648137379970286 -2.090173107223669 4.999998947368421
H -1.3648137379970287 -2.090173107223669 4.999998947368421
H -2.5578250770084696 -1.239206389184284 4.999998947368421
O 0.5435759943432689 4.284251228765574 4.333332280701755
H 1.4435759943432689 4.284251228765574 4.333332280701755
H 0.25056465533182787 5.135217946804959 4.333332280701755
O 3.0704019528459052 -3.6188486581137127 3.6666656140350877
H 3.970401952845905 -3.6188486581137127 3.6666656140350877
H 2.777390613834464 -2.7678819400743278 3.6666656140350877
O -4.9359591997195755 1.0552507118238084 2.9999989473684217
H -4.035959199719575 1.0552507118238084 2.9999989473684217
H -5.228970538731017 1.9062174298631935 2.9999989473684217
O 4.844795042288139 3.1170506900679342 2.3333322807017542
H 5.744795042288139 3.1170506900679342 2.3333322807017542
H 4.551783703276698 3.968017408107319 2.3333322807017542
O -1.3155638617341718 -5.416083478744228 1.6666656140350877
H -0.4155638617341718 -5.416083478744228 1.6666656140350877
H -1.6085752007456129 -4.565116760704843 1.6666656140350877
O -2.5460005681212636 5.400390459169933 0.999998947368421
H -1.6460005681212637 5.400390459169933 0.999998947368421
H -2.8390119071327047 6.251357177209318 0.999998947368421
O 5.807985799860135 -1.9048782986312947 0.33333228070175464
H 6.707985799860135 -1.9048782986312947 0.33333228070175464
H 5.514974460848694 -1.0539115805919095 0.33333228070175464
O -5.356745804814589 -2.135628042531918 -0.333334385964912
H -4.456745804814589 -2.135628042531918 -0.333334385964912
H -5.64975714382603 -1.284661324492533 -0.333334385964912
O 2.6882688851248258 5.508570967095235 -1.0000010526315786
H 3.5882688851248257 5.508570967095235 -1.0000010526315786
H 2.3952575461133847 6.35953768513462 -1.0000010526315786
O 1.905796095467456 -5.349505256225671 -1.666667719298245
H 2.805796095467456 -5.349505256225671 -1.666667719298245
H 1.612784756456015 -4.498538538186286 -1.666667719298245
O -4.60187274926082 2.921809438347932 -2.333334385964912
H -3.70187274926082 2.921809438347932 -2.333334385964912
H -4.894884088272261 3.772776156387317 -2.333334385964912
O 5.255718350011022 1.265889629783375 -3.00000105263158
H 6.155718350011022 1.265889629783375 -3.00000105263158
H 4.962707010999581 2.11685634782276 -3.00000105263158
O -2.550682177135696 -3.7350237503026076 -3.6666677192982453
H -1.650682177135696 -3.7350237503026076 -3.6666677192982453
H -2.843693516147137 -2.8840570322632226 -3.6666677192982453
O -0.3525528990810518 4.265730271882654 -4.333334385964913
H 0.5474471009189482 4.265730271882654 -4.333334385964913
H -0.6455642380924929 5.116696989922039 -4.333334385964913
O 2.716815976923912 -1.9872140911337095 -5.000001052631579
H 3.616815976923912 -1.9872140911337095 -5.000001052631579
H 2.423804637912471 -1.1362473730943243 -5.000001052631579
O -1.78958042748467 0.06869489628592647 -5.666667719298245
H -0.88958042748467 0.06869489628592647 -5.666667719298245
H -2.082591766496111 0.9196616143253117 -5.666667719298245
