 xtb: 6.6.0 (conda-forge)
          11042415413D

361261  0     0  0            999 V2000
    2.2523    3.2459    0.7858 C   0  0  0  0  0  0  0  0  0  0  0  0
    3.3878    3.7318    0.2082 C   0  0  0  0  0  0  0  0  0  0  0  0
    3.9355    3.1696   -0.8692 O   0  0  0  0  0  0  0  0  0  0  0  0
    3.3461    2.0686   -1.4529 C   0  0  0  0  0  0  0  0  0  0  0  0
    2.1987    1.4764   -0.9613 C   0  0  0  0  0  0  0  0  0  0  0  0
    1.6026    2.0927    0.2423 C   0  0  0  0  0  0  0  0  0  0  0  0
    0.5626    1.5763    0.7174 O   0  0  0  0  0  0  0  0  0  0  0  0
    1.6159    0.4477   -1.4518 O   0  0  0  0  0  0  0  0  0  0  0  0
    4.1674    4.9346    0.6763 C   0  0  0  0  0  0  0  0  0  0  0  0
    4.0115    5.2059    2.0634 O   0  0  0  0  0  0  0  0  0  0  0  0
    1.8302    3.7435    1.6506 H   0  0  0  0  0  0  0  0  0  0  0  0
    3.8940    1.7313   -2.3204 H   0  0  0  0  0  0  0  0  0  0  0  0
    5.2243    4.7849    0.4091 H   0  0  0  0  0  0  0  0  0  0  0  0
    3.8238    5.8396    0.1604 H   0  0  0  0  0  0  0  0  0  0  0  0
    4.1013    4.3737    2.5423 H   0  0  0  0  0  0  0  0  0  0  0  0
   -0.0027    0.0023   -0.3681 Fe  0  0  0  0  0  0  0  0  0  0  0  0
   -3.9392    0.3228    0.7887 C   0  0  0  0  0  0  0  0  0  0  0  0
   -4.9309    1.0585    0.2102 C   0  0  0  0  0  0  0  0  0  0  0  0
   -4.7207    1.8142   -0.8675 O   0  0  0  0  0  0  0  0  0  0  0  0
   -3.4726    1.8592   -1.4511 C   0  0  0  0  0  0  0  0  0  0  0  0
   -2.3833    1.1663   -0.9589 C   0  0  0  0  0  0  0  0  0  0  0  0
   -2.6158    0.3418    0.2451 C   0  0  0  0  0  0  0  0  0  0  0  0
   -1.6460   -0.2964    0.7208 O   0  0  0  0  0  0  0  0  0  0  0  0
   -1.2010    1.1802   -1.4493 O   0  0  0  0  0  0  0  0  0  0  0  0
   -6.3629    1.1261    0.6777 C   0  0  0  0  0  0  0  0  0  0  0  0
   -6.5191    0.8561    2.0654 O   0  0  0  0  0  0  0  0  0  0  0  0
   -4.1568   -0.2920    1.6538 H   0  0  0  0  0  0  0  0  0  0  0  0
   -3.4570    2.5019   -2.3189 H   0  0  0  0  0  0  0  0  0  0  0  0
   -6.7663    2.1142    0.4091 H   0  0  0  0  0  0  0  0  0  0  0  0
   -6.9711    0.3722    0.1622 H   0  0  0  0  0  0  0  0  0  0  0  0
   -5.8458    1.3538    2.5441 H   0  0  0  0  0  0  0  0  0  0  0  0
    1.6904   -3.5669    0.7860 C   0  0  0  0  0  0  0  0  0  0  0  0
    1.5473   -4.7938    0.2085 C   0  0  0  0  0  0  0  0  0  0  0  0
    0.7851   -4.9900   -0.8673 O   0  0  0  0  0  0  0  0  0  0  0  0
    0.1210   -3.9317   -1.4498 C   0  0  0  0  0  0  0  0  0  0  0  0
    0.1779   -2.6416   -0.9584 C   0  0  0  0  0  0  0  0  0  0  0  0
    1.0112   -2.4303    0.2435 C   0  0  0  0  0  0  0  0  0  0  0  0
    1.0805   -1.2711    0.7185 O   0  0  0  0  0  0  0  0  0  0  0  0
   -0.4265   -1.6248   -1.4478 O   0  0  0  0  0  0  0  0  0  0  0  0
    2.2056   -6.0677    0.6749 C   0  0  0  0  0  0  0  0  0  0  0  0
    2.5240   -6.0665    2.0608 O   0  0  0  0  0  0  0  0  0  0  0  0
    2.3338   -3.4475    1.6493 H   0  0  0  0  0  0  0  0  0  0  0  0
   -0.4455   -4.2398   -2.3161 H   0  0  0  0  0  0  0  0  0  0  0  0
    1.5496   -6.9108    0.4107 H   0  0  0  0  0  0  0  0  0  0  0  0
    3.1598   -6.2193    0.1552 H   0  0  0  0  0  0  0  0  0  0  0  0
    1.7587   -5.7315    2.5427 H   0  0  0  0  0  0  0  0  0  0  0  0
   -0.4995    0.5611    3.0816 O   0  0  0  0  0  0  0  0  0  0  0  0
   -0.9338   -0.0618    2.4797 H   0  0  0  0  0  0  0  0  0  0  0  0
    0.0130    1.0800    2.4418 H   0  0  0  0  0  0  0  0  0  0  0  0
   -1.8208   -5.2412    9.8841 O   0  0  0  0  0  0  0  0  0  0  0  0
   -2.1368   -5.0355    8.9993 H   0  0  0  0  0  0  0  0  0  0  0  0
   -2.4567   -4.8336   10.4961 H   0  0  0  0  0  0  0  0  0  0  0  0
   -0.4298    3.5008    7.2912 O   0  0  0  0  0  0  0  0  0  0  0  0
    0.1125    3.7101    6.5244 H   0  0  0  0  0  0  0  0  0  0  0  0
   -1.1391    2.9290    6.9839 H   0  0  0  0  0  0  0  0  0  0  0  0
    1.4605   -2.6656    6.3892 O   0  0  0  0  0  0  0  0  0  0  0  0
    1.8277   -1.8783    5.9762 H   0  0  0  0  0  0  0  0  0  0  0  0
    0.6267   -2.8497    5.9451 H   0  0  0  0  0  0  0  0  0  0  0  0
   -4.1783   -1.1204    6.9081 O   0  0  0  0  0  0  0  0  0  0  0  0
   -3.6144   -0.9308    6.1518 H   0  0  0  0  0  0  0  0  0  0  0  0
   -4.7023   -1.8958    6.6852 H   0  0  0  0  0  0  0  0  0  0  0  0
    4.3304    2.7562    3.4152 O   0  0  0  0  0  0  0  0  0  0  0  0
    4.3315    1.8862    3.0064 H   0  0  0  0  0  0  0  0  0  0  0  0
    4.0169    2.6382    4.3175 H   0  0  0  0  0  0  0  0  0  0  0  0
   -2.6220   -6.1634    4.5392 O   0  0  0  0  0  0  0  0  0  0  0  0
   -2.3791   -7.0922    4.4787 H   0  0  0  0  0  0  0  0  0  0  0  0
   -3.5632   -6.1057    4.3481 H   0  0  0  0  0  0  0  0  0  0  0  0
   -3.5568    5.2202    3.3243 O   0  0  0  0  0  0  0  0  0  0  0  0
   -2.7380    4.7893    3.0595 H   0  0  0  0  0  0  0  0  0  0  0  0
   -3.9864    5.5239    2.5194 H   0  0  0  0  0  0  0  0  0  0  0  0
    6.7242   -0.9249    5.8840 O   0  0  0  0  0  0  0  0  0  0  0  0
    7.6705   -0.8396    6.0326 H   0  0  0  0  0  0  0  0  0  0  0  0
    6.4684   -1.7979    6.1966 H   0  0  0  0  0  0  0  0  0  0  0  0
   -8.2972   -4.1924    3.5913 O   0  0  0  0  0  0  0  0  0  0  0  0
   -8.6165   -4.7559    2.8797 H   0  0  0  0  0  0  0  0  0  0  0  0
   -7.7323   -3.5243    3.1895 H   0  0  0  0  0  0  0  0  0  0  0  0
    1.7899    6.5840    3.2278 O   0  0  0  0  0  0  0  0  0  0  0  0
    2.5625    6.1920    2.7899 H   0  0  0  0  0  0  0  0  0  0  0  0
    2.1490    7.1062    3.9620 H   0  0  0  0  0  0  0  0  0  0  0  0
    4.4566   -7.3747    3.6484 O   0  0  0  0  0  0  0  0  0  0  0  0
    4.9477   -6.6201    3.9876 H   0  0  0  0  0  0  0  0  0  0  0  0
    3.8194   -7.0101    3.0131 H   0  0  0  0  0  0  0  0  0  0  0  0
   -7.7566    4.3034    0.0195 O   0  0  0  0  0  0  0  0  0  0  0  0
   -7.5008    4.8384   -0.7381 H   0  0  0  0  0  0  0  0  0  0  0  0
   -8.6916    4.4705    0.1761 H   0  0  0  0  0  0  0  0  0  0  0  0
    8.6485    0.9095    0.9838 O   0  0  0  0  0  0  0  0  0  0  0  0
    7.9952    0.9343    0.2778 H   0  0  0  0  0  0  0  0  0  0  0  0
    8.4236    0.1641    1.5497 H   0  0  0  0  0  0  0  0  0  0  0  0
   -4.9698   -5.2738   -0.0976 O   0  0  0  0  0  0  0  0  0  0  0  0
   -4.4310   -5.9354   -0.5406 H   0  0  0  0  0  0  0  0  0  0  0  0
   -4.4072   -4.5069    0.0469 H   0  0  0  0  0  0  0  0  0  0  0  0
   -1.2454    7.2844   -0.9994 O   0  0  0  0  0  0  0  0  0  0  0  0
   -1.1857    6.3245   -1.0258 H   0  0  0  0  0  0  0  0  0  0  0  0
   -0.3923    7.6067   -0.6935 H   0  0  0  0  0  0  0  0  0  0  0  0
    5.2571   -6.1705   -0.8698 O   0  0  0  0  0  0  0  0  0  0  0  0
    5.9483   -5.5684   -0.5774 H   0  0  0  0  0  0  0  0  0  0  0  0
    5.6056   -6.6464   -1.6297 H   0  0  0  0  0  0  0  0  0  0  0  0
   -8.3350   -1.2037   -0.9191 O   0  0  0  0  0  0  0  0  0  0  0  0
   -8.0266   -1.9857   -1.3868 H   0  0  0  0  0  0  0  0  0  0  0  0
   -9.2953   -1.2019   -0.9796 H   0  0  0  0  0  0  0  0  0  0  0  0
    3.7559    0.9774   -7.6231 O   0  0  0  0  0  0  0  0  0  0  0  0
    3.4336    1.4669   -6.8598 H   0  0  0  0  0  0  0  0  0  0  0  0
    3.4515    0.0711   -7.5150 H   0  0  0  0  0  0  0  0  0  0  0  0
    2.3995   -8.5909   -4.7794 O   0  0  0  0  0  0  0  0  0  0  0  0
    1.9402   -8.0376   -4.1395 H   0  0  0  0  0  0  0  0  0  0  0  0
    2.3365   -8.1455   -5.6296 H   0  0  0  0  0  0  0  0  0  0  0  0
   -5.1856    6.2575   -4.7433 O   0  0  0  0  0  0  0  0  0  0  0  0
   -5.2670    5.7545   -5.5593 H   0  0  0  0  0  0  0  0  0  0  0  0
   -4.2453    6.3920   -4.5891 H   0  0  0  0  0  0  0  0  0  0  0  0
    4.8316   -3.1706   -4.4387 O   0  0  0  0  0  0  0  0  0  0  0  0
    4.7959   -2.4622   -3.7884 H   0  0  0  0  0  0  0  0  0  0  0  0
    3.9329   -3.4980   -4.5420 H   0  0  0  0  0  0  0  0  0  0  0  0
   -4.6867   -1.9885   -4.9653 O   0  0  0  0  0  0  0  0  0  0  0  0
   -4.3003   -2.2934   -4.1384 H   0  0  0  0  0  0  0  0  0  0  0  0
   -4.1546   -1.2427   -5.2595 H   0  0  0  0  0  0  0  0  0  0  0  0
   -0.0597    4.3755   -5.5882 O   0  0  0  0  0  0  0  0  0  0  0  0
   -0.5883    3.5802   -5.7081 H   0  0  0  0  0  0  0  0  0  0  0  0
    0.4034    4.2688   -4.7517 H   0  0  0  0  0  0  0  0  0  0  0  0
    0.4853   -0.4914   -3.7765 O   0  0  0  0  0  0  0  0  0  0  0  0
    1.0064    0.0292   -3.1409 H   0  0  0  0  0  0  0  0  0  0  0  0
   -0.0908   -0.9507   -3.1413 H   0  0  0  0  0  0  0  0  0  0  0  0
   -0.0326   -0.1403   11.1114 O   0  0  0  0  0  0  0  0  0  0  0  0
    0.0784   -0.9488   10.6011 H   0  0  0  0  0  0  0  0  0  0  0  0
   -0.8313    0.2877   10.7881 H   0  0  0  0  0  0  0  0  0  0  0  0
   -3.7340   -3.9458   11.5174 O   0  0  0  0  0  0  0  0  0  0  0  0
   -3.4828   -3.5883   12.3857 H   0  0  0  0  0  0  0  0  0  0  0  0
   -4.4129   -3.3582   11.1715 H   0  0  0  0  0  0  0  0  0  0  0  0
    1.1690    7.3482   10.2465 O   0  0  0  0  0  0  0  0  0  0  0  0
    1.6886    6.5401   10.1891 H   0  0  0  0  0  0  0  0  0  0  0  0
    0.2896    7.1393    9.9170 H   0  0  0  0  0  0  0  0  0  0  0  0
    2.9857   -4.5474    7.9101 O   0  0  0  0  0  0  0  0  0  0  0  0
    2.4781   -5.3587    7.8112 H   0  0  0  0  0  0  0  0  0  0  0  0
    2.4890   -3.8621    7.4351 H   0  0  0  0  0  0  0  0  0  0  0  0
   -5.0253    0.8832    8.7558 O   0  0  0  0  0  0  0  0  0  0  0  0
   -4.6735    0.1724    8.1961 H   0  0  0  0  0  0  0  0  0  0  0  0
   -5.8113    1.2084    8.3067 H   0  0  0  0  0  0  0  0  0  0  0  0
    4.4366    2.4817    9.0606 O   0  0  0  0  0  0  0  0  0  0  0  0
    4.9905    1.7572    9.3663 H   0  0  0  0  0  0  0  0  0  0  0  0
    3.5471    2.3082    9.3839 H   0  0  0  0  0  0  0  0  0  0  0  0
   -1.2080  -10.0115    8.1497 O   0  0  0  0  0  0  0  0  0  0  0  0
   -0.5182   -9.3406    8.1763 H   0  0  0  0  0  0  0  0  0  0  0  0
   -1.7189   -9.9199    8.9596 H   0  0  0  0  0  0  0  0  0  0  0  0
   -4.1025    7.5784    7.9454 O   0  0  0  0  0  0  0  0  0  0  0  0
   -3.8733    6.6519    7.8221 H   0  0  0  0  0  0  0  0  0  0  0  0
   -4.2417    7.9504    7.0691 H   0  0  0  0  0  0  0  0  0  0  0  0
    7.7999   -7.3748    7.9415 O   0  0  0  0  0  0  0  0  0  0  0  0
    7.0512   -6.8076    8.1516 H   0  0  0  0  0  0  0  0  0  0  0  0
    7.4386   -8.2016    7.6069 H   0  0  0  0  0  0  0  0  0  0  0  0
   -7.8762   -5.1689    6.2357 O   0  0  0  0  0  0  0  0  0  0  0  0
   -8.0096   -4.8657    5.3224 H   0  0  0  0  0  0  0  0  0  0  0  0
   -8.4953   -4.6669    6.7741 H   0  0  0  0  0  0  0  0  0  0  0  0
    2.9204    8.0894    5.4169 O   0  0  0  0  0  0  0  0  0  0  0  0
    3.5365    7.6793    6.0321 H   0  0  0  0  0  0  0  0  0  0  0  0
    2.4447    8.7684    5.9049 H   0  0  0  0  0  0  0  0  0  0  0  0
    3.3883   -9.3591    5.3220 O   0  0  0  0  0  0  0  0  0  0  0  0
    2.6370   -9.6827    4.8159 H   0  0  0  0  0  0  0  0  0  0  0  0
    3.8138   -8.6839    4.7630 H   0  0  0  0  0  0  0  0  0  0  0  0
   -8.3715    4.4908    6.0561 O   0  0  0  0  0  0  0  0  0  0  0  0
   -7.8497    4.5644    5.2506 H   0  0  0  0  0  0  0  0  0  0  0  0
   -8.2393    5.3050    6.5510 H   0  0  0  0  0  0  0  0  0  0  0  0
    7.9887    5.5789    6.0481 O   0  0  0  0  0  0  0  0  0  0  0  0
    7.4478    4.8998    6.4635 H   0  0  0  0  0  0  0  0  0  0  0  0
    7.6621    5.6865    5.1490 H   0  0  0  0  0  0  0  0  0  0  0  0
   -4.8103  -10.1298    1.6357 O   0  0  0  0  0  0  0  0  0  0  0  0
   -4.6249  -10.8309    2.2678 H   0  0  0  0  0  0  0  0  0  0  0  0
   -5.6481   -9.7318    1.8916 H   0  0  0  0  0  0  0  0  0  0  0  0
   -2.4923   10.2628    3.2754 O   0  0  0  0  0  0  0  0  0  0  0  0
   -1.8384    9.5605    3.3537 H   0  0  0  0  0  0  0  0  0  0  0  0
   -2.6216   10.4222    2.3355 H   0  0  0  0  0  0  0  0  0  0  0  0
    9.2718   -4.5154    3.5150 O   0  0  0  0  0  0  0  0  0  0  0  0
    9.3909   -5.3364    4.0024 H   0  0  0  0  0  0  0  0  0  0  0  0
    9.5617   -4.6809    2.6128 H   0  0  0  0  0  0  0  0  0  0  0  0
  -11.4448    0.6399    3.3386 O   0  0  0  0  0  0  0  0  0  0  0  0
  -10.9715   -0.1923    3.2423 H   0  0  0  0  0  0  0  0  0  0  0  0
  -10.7817    1.3364    3.3781 H   0  0  0  0  0  0  0  0  0  0  0  0
    6.9541    9.8836    2.1045 O   0  0  0  0  0  0  0  0  0  0  0  0
    7.0889   10.2894    2.9747 H   0  0  0  0  0  0  0  0  0  0  0  0
    6.3454    9.1521    2.2506 H   0  0  0  0  0  0  0  0  0  0  0  0
   -0.0701   -8.6649    0.2726 O   0  0  0  0  0  0  0  0  0  0  0  0
   -0.2568   -9.3431    0.9296 H   0  0  0  0  0  0  0  0  0  0  0  0
   -0.7593   -8.7286   -0.3951 H   0  0  0  0  0  0  0  0  0  0  0  0
   -6.1434    9.8830   -0.9829 O   0  0  0  0  0  0  0  0  0  0  0  0
   -5.6144    9.0809   -1.0413 H   0  0  0  0  0  0  0  0  0  0  0  0
   -6.8835    9.7747   -1.5882 H   0  0  0  0  0  0  0  0  0  0  0  0
    9.8009   -3.1906   -1.8434 O   0  0  0  0  0  0  0  0  0  0  0  0
    9.3613   -2.5941   -2.4574 H   0  0  0  0  0  0  0  0  0  0  0  0
   10.5948   -2.7430   -1.5361 H   0  0  0  0  0  0  0  0  0  0  0  0
   -8.8414   -7.5464   -2.1182 O   0  0  0  0  0  0  0  0  0  0  0  0
   -8.1390   -8.1977   -2.2103 H   0  0  0  0  0  0  0  0  0  0  0  0
   -8.6214   -6.8088   -2.6954 H   0  0  0  0  0  0  0  0  0  0  0  0
    2.0581   11.4546    0.5882 O   0  0  0  0  0  0  0  0  0  0  0  0
    2.8014   11.1633    0.0514 H   0  0  0  0  0  0  0  0  0  0  0  0
    2.1234   10.9901    1.4287 H   0  0  0  0  0  0  0  0  0  0  0  0
    4.2074  -11.4443   -0.2372 O   0  0  0  0  0  0  0  0  0  0  0  0
    4.1048  -11.0079    0.6145 H   0  0  0  0  0  0  0  0  0  0  0  0
    3.9069  -10.8233   -0.9086 H   0  0  0  0  0  0  0  0  0  0  0  0
   -8.5840    2.3001   -4.8226 O   0  0  0  0  0  0  0  0  0  0  0  0
   -7.7553    1.9873   -4.4465 H   0  0  0  0  0  0  0  0  0  0  0  0
   -9.2604    2.1780   -4.1491 H   0  0  0  0  0  0  0  0  0  0  0  0
    8.1286    1.4410   -4.4349 O   0  0  0  0  0  0  0  0  0  0  0  0
    7.8149    0.9255   -5.1846 H   0  0  0  0  0  0  0  0  0  0  0  0
    7.8075    2.3398   -4.5561 H   0  0  0  0  0  0  0  0  0  0  0  0
   -2.7549   -7.4353   -4.4933 O   0  0  0  0  0  0  0  0  0  0  0  0
   -2.8003   -8.2772   -4.9563 H   0  0  0  0  0  0  0  0  0  0  0  0
   -3.0116   -6.7534   -5.1219 H   0  0  0  0  0  0  0  0  0  0  0  0
   -2.4409    8.3970   -8.5244 O   0  0  0  0  0  0  0  0  0  0  0  0
   -1.6906    7.8914   -8.1954 H   0  0  0  0  0  0  0  0  0  0  0  0
   -2.4669    9.2177   -8.0233 H   0  0  0  0  0  0  0  0  0  0  0  0
    6.8257   -3.5667   -6.4300 O   0  0  0  0  0  0  0  0  0  0  0  0
    7.2360   -4.3862   -6.1376 H   0  0  0  0  0  0  0  0  0  0  0  0
    6.1306   -3.3739   -5.7791 H   0  0  0  0  0  0  0  0  0  0  0  0
   -9.8533   -3.1411   -5.6026 O   0  0  0  0  0  0  0  0  0  0  0  0
   -9.5231   -3.8526   -6.1596 H   0  0  0  0  0  0  0  0  0  0  0  0
   -9.3253   -2.3616   -5.8019 H   0  0  0  0  0  0  0  0  0  0  0  0
    1.9030    5.2622  -10.6461 O   0  0  0  0  0  0  0  0  0  0  0  0
    1.7896    4.6954   -9.8765 H   0  0  0  0  0  0  0  0  0  0  0  0
    2.1185    6.1407  -10.3182 H   0  0  0  0  0  0  0  0  0  0  0  0
    0.3155   -4.3891   -7.5974 O   0  0  0  0  0  0  0  0  0  0  0  0
    0.4408   -3.9142   -8.4244 H   0  0  0  0  0  0  0  0  0  0  0  0
   -0.0053   -3.7510   -6.9523 H   0  0  0  0  0  0  0  0  0  0  0  0
   -3.7748    2.8842   -9.0898 O   0  0  0  0  0  0  0  0  0  0  0  0
   -3.3032    2.2143   -9.5943 H   0  0  0  0  0  0  0  0  0  0  0  0
   -3.4747    3.7401   -9.4115 H   0  0  0  0  0  0  0  0  0  0  0  0
    0.0825   -0.3702  -11.4587 O   0  0  0  0  0  0  0  0  0  0  0  0
    0.4087   -0.8892  -12.2000 H   0  0  0  0  0  0  0  0  0  0  0  0
    0.7635    0.2769  -11.2493 H   0  0  0  0  0  0  0  0  0  0  0  0
    4.1230    0.9899   13.9196 O   0  0  0  0  0  0  0  0  0  0  0  0
    3.8438    0.0720   13.8431 H   0  0  0  0  0  0  0  0  0  0  0  0
    3.3241    1.5158   14.0286 H   0  0  0  0  0  0  0  0  0  0  0  0
   -2.9646   -2.7361   13.9480 O   0  0  0  0  0  0  0  0  0  0  0  0
   -2.0742   -2.8705   14.2869 H   0  0  0  0  0  0  0  0  0  0  0  0
   -3.2258   -1.8391   14.1801 H   0  0  0  0  0  0  0  0  0  0  0  0
    0.3804    5.0525   14.8689 O   0  0  0  0  0  0  0  0  0  0  0  0
    0.9326    5.8296   14.7368 H   0  0  0  0  0  0  0  0  0  0  0  0
   -0.4980    5.2738   14.5439 H   0  0  0  0  0  0  0  0  0  0  0  0
    2.6368   -4.5138   13.1521 O   0  0  0  0  0  0  0  0  0  0  0  0
    3.3889   -4.3889   12.5651 H   0  0  0  0  0  0  0  0  0  0  0  0
    1.8843   -4.7377   12.5949 H   0  0  0  0  0  0  0  0  0  0  0  0
   -7.2134    0.5729   13.4183 O   0  0  0  0  0  0  0  0  0  0  0  0
   -7.3909   -0.0297   12.6890 H   0  0  0  0  0  0  0  0  0  0  0  0
   -6.7619    1.3367   13.0451 H   0  0  0  0  0  0  0  0  0  0  0  0
    5.9915    6.1686   12.3631 O   0  0  0  0  0  0  0  0  0  0  0  0
    6.3820    5.9127   11.5214 H   0  0  0  0  0  0  0  0  0  0  0  0
    5.6355    5.3682   12.7619 H   0  0  0  0  0  0  0  0  0  0  0  0
   -2.8488   -8.9467   13.4718 O   0  0  0  0  0  0  0  0  0  0  0  0
   -2.0364   -8.4341   13.4096 H   0  0  0  0  0  0  0  0  0  0  0  0
   -3.5719   -8.3491   13.2563 H   0  0  0  0  0  0  0  0  0  0  0  0
   -3.7662    8.3145   13.0926 O   0  0  0  0  0  0  0  0  0  0  0  0
   -4.4770    7.8858   12.6058 H   0  0  0  0  0  0  0  0  0  0  0  0
   -3.2514    8.8159   12.4521 H   0  0  0  0  0  0  0  0  0  0  0  0
   11.3660   -2.9327    8.1362 O   0  0  0  0  0  0  0  0  0  0  0  0
   10.8942   -3.7717    8.1395 H   0  0  0  0  0  0  0  0  0  0  0  0
   11.6860   -2.7922    7.2392 H   0  0  0  0  0  0  0  0  0  0  0  0
  -10.1653   -0.6796    8.7577 O   0  0  0  0  0  0  0  0  0  0  0  0
  -10.6807   -0.2055    9.4164 H   0  0  0  0  0  0  0  0  0  0  0  0
  -10.4770   -0.3879    7.8946 H   0  0  0  0  0  0  0  0  0  0  0  0
    4.7639   10.8704    9.4956 O   0  0  0  0  0  0  0  0  0  0  0  0
    4.9183   10.1831   10.1511 H   0  0  0  0  0  0  0  0  0  0  0  0
    3.8610   11.1791    9.6211 H   0  0  0  0  0  0  0  0  0  0  0  0
    2.7784  -13.9940    7.5666 O   0  0  0  0  0  0  0  0  0  0  0  0
    3.5823  -13.6494    7.1651 H   0  0  0  0  0  0  0  0  0  0  0  0
    2.2690  -13.2351    7.8688 H   0  0  0  0  0  0  0  0  0  0  0  0
  -12.5710    5.9594    3.2666 O   0  0  0  0  0  0  0  0  0  0  0  0
  -12.6885    5.4850    4.0957 H   0  0  0  0  0  0  0  0  0  0  0  0
  -11.7459    6.4495    3.3385 H   0  0  0  0  0  0  0  0  0  0  0  0
   11.6090    1.8008    5.5217 O   0  0  0  0  0  0  0  0  0  0  0  0
   11.2933    2.1239    6.3711 H   0  0  0  0  0  0  0  0  0  0  0  0
   11.1085    2.2618    4.8408 H   0  0  0  0  0  0  0  0  0  0  0  0
   -6.5029  -10.1484    6.4981 O   0  0  0  0  0  0  0  0  0  0  0  0
   -5.8397   -9.5208    6.8033 H   0  0  0  0  0  0  0  0  0  0  0  0
   -7.3600   -9.7261    6.6105 H   0  0  0  0  0  0  0  0  0  0  0  0
   -0.4565   11.9862    7.8246 O   0  0  0  0  0  0  0  0  0  0  0  0
   -0.9900   11.1982    7.9701 H   0  0  0  0  0  0  0  0  0  0  0  0
   -0.8030   12.4186    7.0379 H   0  0  0  0  0  0  0  0  0  0  0  0
    9.2163   -9.1530    1.1843 O   0  0  0  0  0  0  0  0  0  0  0  0
    9.3922  -10.0881    1.0444 H   0  0  0  0  0  0  0  0  0  0  0  0
    8.2842   -9.0752    1.4127 H   0  0  0  0  0  0  0  0  0  0  0  0
  -13.9033    0.9105    4.7393 O   0  0  0  0  0  0  0  0  0  0  0  0
  -13.0583    0.8062    4.2698 H   0  0  0  0  0  0  0  0  0  0  0  0
  -14.5536    1.1267    4.0646 H   0  0  0  0  0  0  0  0  0  0  0  0
    7.0463   10.8041    4.8235 O   0  0  0  0  0  0  0  0  0  0  0  0
    7.4134   10.2994    5.5563 H   0  0  0  0  0  0  0  0  0  0  0  0
    6.3972   11.4090    5.1959 H   0  0  0  0  0  0  0  0  0  0  0  0
   -0.5426  -13.1036    3.5687 O   0  0  0  0  0  0  0  0  0  0  0  0
    0.0288  -13.8554    3.7525 H   0  0  0  0  0  0  0  0  0  0  0  0
   -0.8801  -12.7939    4.4151 H   0  0  0  0  0  0  0  0  0  0  0  0
   -7.9311    9.0878    3.7839 O   0  0  0  0  0  0  0  0  0  0  0  0
   -7.0341    8.9201    3.4781 H   0  0  0  0  0  0  0  0  0  0  0  0
   -8.2563    9.8472    3.2914 H   0  0  0  0  0  0  0  0  0  0  0  0
   13.6809   -1.6336    2.1901 O   0  0  0  0  0  0  0  0  0  0  0  0
   14.2044   -1.1697    2.8508 H   0  0  0  0  0  0  0  0  0  0  0  0
   12.7720   -1.3348    2.2963 H   0  0  0  0  0  0  0  0  0  0  0  0
  -10.8590   -7.5645   -0.0990 O   0  0  0  0  0  0  0  0  0  0  0  0
  -10.1316   -7.4937   -0.7380 H   0  0  0  0  0  0  0  0  0  0  0  0
  -11.4147   -8.2835   -0.4141 H   0  0  0  0  0  0  0  0  0  0  0  0
    1.8711   16.6272    1.2187 O   0  0  0  0  0  0  0  0  0  0  0  0
    2.3358   15.9799    1.7588 H   0  0  0  0  0  0  0  0  0  0  0  0
    1.4003   16.1361    0.5379 H   0  0  0  0  0  0  0  0  0  0  0  0
    6.4431  -13.0466   -0.9128 O   0  0  0  0  0  0  0  0  0  0  0  0
    6.0623  -13.7622   -1.4305 H   0  0  0  0  0  0  0  0  0  0  0  0
    5.6930  -12.4938   -0.6324 H   0  0  0  0  0  0  0  0  0  0  0  0
  -12.8484    2.6411   -1.1858 O   0  0  0  0  0  0  0  0  0  0  0  0
  -13.0082    1.7021   -1.0482 H   0  0  0  0  0  0  0  0  0  0  0  0
  -13.1495    3.0969   -0.3936 H   0  0  0  0  0  0  0  0  0  0  0  0
    9.6680    6.1204   -1.1749 O   0  0  0  0  0  0  0  0  0  0  0  0
    9.6236    5.2179   -0.8433 H   0  0  0  0  0  0  0  0  0  0  0  0
    9.4451    6.7036   -0.4426 H   0  0  0  0  0  0  0  0  0  0  0  0
   -5.4907  -11.9533   -3.6220 O   0  0  0  0  0  0  0  0  0  0  0  0
   -4.9306  -12.6360   -4.0036 H   0  0  0  0  0  0  0  0  0  0  0  0
   -5.0902  -11.7008   -2.7838 H   0  0  0  0  0  0  0  0  0  0  0  0
   -1.4742   11.4521   -3.9209 O   0  0  0  0  0  0  0  0  0  0  0  0
   -0.9098   11.5443   -3.1468 H   0  0  0  0  0  0  0  0  0  0  0  0
   -2.3215   11.1179   -3.6103 H   0  0  0  0  0  0  0  0  0  0  0  0
    9.2441   -8.2417   -4.1371 O   0  0  0  0  0  0  0  0  0  0  0  0
    9.6986   -7.5817   -3.6040 H   0  0  0  0  0  0  0  0  0  0  0  0
    9.1409   -9.0249   -3.5873 H   0  0  0  0  0  0  0  0  0  0  0  0
  -13.5627   -2.9837   -1.4377 O   0  0  0  0  0  0  0  0  0  0  0  0
  -13.3808   -3.6967   -0.8172 H   0  0  0  0  0  0  0  0  0  0  0  0
  -13.2363   -3.2695   -2.2970 H   0  0  0  0  0  0  0  0  0  0  0  0
    4.3847    7.1879   -2.0510 O   0  0  0  0  0  0  0  0  0  0  0  0
    4.3602    6.8004   -2.9312 H   0  0  0  0  0  0  0  0  0  0  0  0
    5.1637    7.7522   -2.0197 H   0  0  0  0  0  0  0  0  0  0  0  0
   -0.4719  -12.9639   -2.6851 O   0  0  0  0  0  0  0  0  0  0  0  0
   -0.0595  -13.1279   -1.8311 H   0  0  0  0  0  0  0  0  0  0  0  0
    0.1112  -12.3725   -3.1716 H   0  0  0  0  0  0  0  0  0  0  0  0
  -10.4360    7.1948   -3.5241 O   0  0  0  0  0  0  0  0  0  0  0  0
  -11.0546    6.4861   -3.3203 H   0  0  0  0  0  0  0  0  0  0  0  0
   -9.8484    6.8659   -4.2120 H   0  0  0  0  0  0  0  0  0  0  0  0
   11.5349    4.9764   -6.2572 O   0  0  0  0  0  0  0  0  0  0  0  0
   11.8476    4.1289   -5.9253 H   0  0  0  0  0  0  0  0  0  0  0  0
   11.3190    5.5155   -5.4896 H   0  0  0  0  0  0  0  0  0  0  0  0
   -7.2695   -7.8891   -7.0657 O   0  0  0  0  0  0  0  0  0  0  0  0
   -7.0864   -8.7802   -6.7517 H   0  0  0  0  0  0  0  0  0  0  0  0
   -6.6975   -7.7324   -7.8234 H   0  0  0  0  0  0  0  0  0  0  0  0
    2.5126    9.8562   -7.3838 O   0  0  0  0  0  0  0  0  0  0  0  0
    2.9569    9.1733   -6.8713 H   0  0  0  0  0  0  0  0  0  0  0  0
    2.0202   10.4001   -6.7611 H   0  0  0  0  0  0  0  0  0  0  0  0
    6.3097   -8.3786   -8.7791 O   0  0  0  0  0  0  0  0  0  0  0  0
    6.3801   -8.6575   -7.8605 H   0  0  0  0  0  0  0  0  0  0  0  0
    7.1658   -8.0166   -9.0283 H   0  0  0  0  0  0  0  0  0  0  0  0
   -8.7801    0.4856   -9.6540 O   0  0  0  0  0  0  0  0  0  0  0  0
   -8.0236    0.9946   -9.3456 H   0  0  0  0  0  0  0  0  0  0  0  0
   -9.5503    0.8173   -9.1821 H   0  0  0  0  0  0  0  0  0  0  0  0
    6.1954    5.8345   -7.2106 O   0  0  0  0  0  0  0  0  0  0  0  0
    7.0924    6.1498   -7.3572 H   0  0  0  0  0  0  0  0  0  0  0  0
    6.0143    5.1755   -7.8881 H   0  0  0  0  0  0  0  0  0  0  0  0
   -2.3122   -8.3952   -9.6153 O   0  0  0  0  0  0  0  0  0  0  0  0
   -1.3699   -8.4526   -9.4282 H   0  0  0  0  0  0  0  0  0  0  0  0
   -2.4962   -7.4788   -9.8452 H   0  0  0  0  0  0  0  0  0  0  0  0
   -2.7934    6.4329  -13.3086 O   0  0  0  0  0  0  0  0  0  0  0  0
   -1.9428    6.7338  -12.9729 H   0  0  0  0  0  0  0  0  0  0  0  0
   -3.4713    6.9139  -12.8239 H   0  0  0  0  0  0  0  0  0  0  0  0
    4.3713   -3.5522  -11.1345 O   0  0  0  0  0  0  0  0  0  0  0  0
    4.4807   -4.3916  -10.6763 H   0  0  0  0  0  0  0  0  0  0  0  0
    4.9452   -2.9176  -10.6937 H   0  0  0  0  0  0  0  0  0  0  0  0
   -4.4945   -3.2543   -9.8588 O   0  0  0  0  0  0  0  0  0  0  0  0
   -3.7959   -2.5928   -9.8316 H   0  0  0  0  0  0  0  0  0  0  0  0
   -5.3170   -2.8044   -9.6424 H   0  0  0  0  0  0  0  0  0  0  0  0
    0.8625    2.6897  -15.3424 O   0  0  0  0  0  0  0  0  0  0  0  0
    1.5272    3.1752  -14.8433 H   0  0  0  0  0  0  0  0  0  0  0  0
    0.0032    2.9893  -15.0283 H   0  0  0  0  0  0  0  0  0  0  0  0
  1  2  2  0  0  0  0
  2  3  1  0  0  0  0
  3  4  1  0  0  0  0
  4  5  4  0  0  0  0
  1  6  4  0  0  0  0
  5  6  1  0  0  0  0
  6  7  4  0  0  0  0
  5  8  4  0  0  0  0
  2  9  1  0  0  0  0
  9 10  1  0  0  0  0
  1 11  1  0  0  0  0
  4 12  1  0  0  0  0
  9 13  1  0  0  0  0
  9 14  1  0  0  0  0
 10 15  1  0  0  0  0
  7 16  1  0  0  0  0
  8 16  1  0  0  0  0
 17 18  2  0  0  0  0
 18 19  1  0  0  0  0
 19 20  1  0  0  0  0
 20 21  4  0  0  0  0
 17 22  4  0  0  0  0
 21 22  1  0  0  0  0
 16 23  1  0  0  0  0
 22 23  4  0  0  0  0
 16 24  1  0  0  0  0
 21 24  4  0  0  0  0
 18 25  1  0  0  0  0
 25 26  1  0  0  0  0
 17 27  1  0  0  0  0
 20 28  1  0  0  0  0
 25 29  1  0  0  0  0
 25 30  1  0  0  0  0
 26 31  1  0  0  0  0
 32 33  2  0  0  0  0
 33 34  1  0  0  0  0
 34 35  1  0  0  0  0
 35 36  4  0  0  0  0
 32 37  1  0  0  0  0
 36 37  1  0  0  0  0
 16 38  1  0  0  0  0
 37 38  4  0  0  0  0
 16 39  1  0  0  0  0
 36 39  4  0  0  0  0
 33 40  1  0  0  0  0
 40 41  1  0  0  0  0
 32 42  1  0  0  0  0
 35 43  1  0  0  0  0
 40 44  1  0  0  0  0
 40 45  1  0  0  0  0
 41 46  1  0  0  0  0
 47 48  1  0  0  0  0
 47 49  1  0  0  0  0
 50 51  1  0  0  0  0
 50 52  1  0  0  0  0
 53 54  1  0  0  0  0
 53 55  1  0  0  0  0
 56 57  1  0  0  0  0
 56 58  1  0  0  0  0
 59 60  1  0  0  0  0
 59 61  1  0  0  0  0
 62 63  1  0  0  0  0
 62 64  1  0  0  0  0
 65 66  1  0  0  0  0
 65 67  1  0  0  0  0
 68 69  1  0  0  0  0
 68 70  1  0  0  0  0
 71 72  1  0  0  0  0
 71 73  1  0  0  0  0
 74 75  1  0  0  0  0
 74 76  1  0  0  0  0
 77 78  1  0  0  0  0
 77 79  1  0  0  0  0
 80 81  1  0  0  0  0
 80 82  1  0  0  0  0
 83 84  1  0  0  0  0
 83 85  1  0  0  0  0
 86 87  1  0  0  0  0
 86 88  1  0  0  0  0
 89 90  1  0  0  0  0
 89 91  1  0  0  0  0
 92 93  1  0  0  0  0
 92 94  1  0  0  0  0
 95 96  1  0  0  0  0
 95 97  1  0  0  0  0
 98 99  1  0  0  0  0
 98100  1  0  0  0  0
101102  1  0  0  0  0
101103  1  0  0  0  0
104105  1  0  0  0  0
104106  1  0  0  0  0
107108  1  0  0  0  0
107109  1  0  0  0  0
110111  1  0  0  0  0
110112  1  0  0  0  0
113114  1  0  0  0  0
113115  1  0  0  0  0
116117  1  0  0  0  0
116118  1  0  0  0  0
119120  1  0  0  0  0
119121  1  0  0  0  0
122123  1  0  0  0  0
122124  1  0  0  0  0
125126  1  0  0  0  0
125127  1  0  0  0  0
128129  1  0  0  0  0
128130  1  0  0  0  0
131132  1  0  0  0  0
131133  1  0  0  0  0
134135  1  0  0  0  0
134136  1  0  0  0  0
137138  1  0  0  0  0
137139  1  0  0  0  0
140141  1  0  0  0  0
140142  1  0  0  0  0
143144  1  0  0  0  0
143145  1  0  0  0  0
146147  1  0  0  0  0
146148  1  0  0  0  0
149150  1  0  0  0  0
149151  1  0  0  0  0
152153  1  0  0  0  0
152154  1  0  0  0  0
155156  1  0  0  0  0
155157  1  0  0  0  0
158159  1  0  0  0  0
158160  1  0  0  0  0
161162  1  0  0  0  0
161163  1  0  0  0  0
164165  1  0  0  0  0
164166  1  0  0  0  0
167168  1  0  0  0  0
167169  1  0  0  0  0
170171  1  0  0  0  0
170172  1  0  0  0  0
173174  1  0  0  0  0
173175  1  0  0  0  0
176177  1  0  0  0  0
176178  1  0  0  0  0
179180  1  0  0  0  0
179181  1  0  0  0  0
182183  1  0  0  0  0
182184  1  0  0  0  0
185186  1  0  0  0  0
185187  1  0  0  0  0
188189  1  0  0  0  0
188190  1  0  0  0  0
191192  1  0  0  0  0
191193  1  0  0  0  0
194195  1  0  0  0  0
194196  1  0  0  0  0
197198  1  0  0  0  0
197199  1  0  0  0  0
200201  1  0  0  0  0
200202  1  0  0  0  0
203204  1  0  0  0  0
203205  1  0  0  0  0
206207  1  0  0  0  0
206208  1  0  0  0  0
209210  1  0  0  0  0
209211  1  0  0  0  0
212213  1  0  0  0  0
212214  1  0  0  0  0
215216  1  0  0  0  0
215217  1  0  0  0  0
218219  1  0  0  0  0
218220  1  0  0  0  0
221222  1  0  0  0  0
221223  1  0  0  0  0
224225  1  0  0  0  0
224226  1  0  0  0  0
227228  1  0  0  0  0
227229  1  0  0  0  0
230231  1  0  0  0  0
230232  1  0  0  0  0
233234  1  0  0  0  0
233235  1  0  0  0  0
236237  1  0  0  0  0
236238  1  0  0  0  0
239240  1  0  0  0  0
239241  1  0  0  0  0
242243  1  0  0  0  0
242244  1  0  0  0  0
245246  1  0  0  0  0
245247  1  0  0  0  0
248249  1  0  0  0  0
248250  1  0  0  0  0
251252  1  0  0  0  0
251253  1  0  0  0  0
254255  1  0  0  0  0
254256  1  0  0  0  0
257258  1  0  0  0  0
257259  1  0  0  0  0
260261  1  0  0  0  0
260262  1  0  0  0  0
263264  1  0  0  0  0
263265  1  0  0  0  0
266267  1  0  0  0  0
266268  1  0  0  0  0
269270  1  0  0  0  0
269271  1  0  0  0  0
272273  1  0  0  0  0
272274  1  0  0  0  0
275276  1  0  0  0  0
275277  1  0  0  0  0
278279  1  0  0  0  0
278280  1  0  0  0  0
281282  1  0  0  0  0
281283  1  0  0  0  0
284285  1  0  0  0  0
284286  1  0  0  0  0
287288  1  0  0  0  0
287289  1  0  0  0  0
290291  1  0  0  0  0
290292  1  0  0  0  0
293294  1  0  0  0  0
293295  1  0  0  0  0
296297  1  0  0  0  0
296298  1  0  0  0  0
299300  1  0  0  0  0
299301  1  0  0  0  0
302303  1  0  0  0  0
302304  1  0  0  0  0
305306  1  0  0  0  0
305307  1  0  0  0  0
308309  1  0  0  0  0
308310  1  0  0  0  0
311312  1  0  0  0  0
311313  1  0  0  0  0
314315  1  0  0  0  0
314316  1  0  0  0  0
317318  1  0  0  0  0
317319  1  0  0  0  0
320321  1  0  0  0  0
320322  1  0  0  0  0
323324  1  0  0  0  0
323325  1  0  0  0  0
326327  1  0  0  0  0
326328  1  0  0  0  0
329330  1  0  0  0  0
329331  1  0  0  0  0
332333  1  0  0  0  0
332334  1  0  0  0  0
335336  1  0  0  0  0
335337  1  0  0  0  0
338339  1  0  0  0  0
338340  1  0  0  0  0
341342  1  0  0  0  0
341343  1  0  0  0  0
344345  1  0  0  0  0
344346  1  0  0  0  0
347348  1  0  0  0  0
347349  1  0  0  0  0
350351  1  0  0  0  0
350352  1  0  0  0  0
353354  1  0  0  0  0
353355  1  0  0  0  0
356357  1  0  0  0  0
356358  1  0  0  0  0
359360  1  0  0  0  0
359361  1  0  0  0  0
M  CHG  1   1  -1
M  END
