55
Molecule with added oxygen and hydrogen atoms
Fe         0.00000       -0.00022       -0.00006
O         -0.04233        0.80241        1.87013
H         -0.49983        0.43329        2.64788
O         -1.67592        1.04795       -0.48704
H         -2.13585        1.03689       -1.34657
O          1.15508        1.54976       -0.63859
H          2.12928        1.58627       -0.63168
O          0.04468       -0.80148       -1.87053
H         -0.38816       -1.62681       -2.15682
O          1.67485       -1.04851        0.48963
H          2.13286       -1.03692        1.35019
O         -1.15636       -1.54972        0.63652
H         -2.13060       -1.58511        0.62863
H         -0.83936       -2.39460        1.00551
H         -2.16791        1.65465        0.09632
H          0.39163        1.62773        2.15472
H          2.16795       -1.65581       -0.09216
H          0.83676        2.39386       -1.00822
H          0.50319       -0.43107       -2.64708
O 1.7984347159791123 0.00013473684210524891 4.125041052631579
H 2.698434715979112 0.00013473684210524891 4.125041052631579
H 1.5054233769676713 0.8511014548814905 4.125041052631579
O -2.194758615666343 -2.010442011268455 3.375041052631579
H -1.294758615666343 -2.010442011268455 3.375041052631579
H -2.487769954677784 -1.1594752932290697 3.375041052631579
O 0.31954310446013257 3.6411875871785155 2.6250410526315786
H 1.2195431044601326 3.6411875871785155 2.6250410526315786
H 0.02653176544869157 4.492154305217901 2.6250410526315786
O 2.488979534902565 -3.2463010618327965 1.8750410526315788
H 3.388979534902565 -3.2463010618327965 1.8750410526315788
H 2.195968195891124 -2.3953343437934116 1.8750410526315788
O -4.290503400852237 0.759064003999747 1.1250410526315788
H -3.390503400852237 0.759064003999747 1.1250410526315788
H -4.583514739863678 1.6100307220391321 1.1250410526315788
O 3.7836900767639956 2.4070099873830633 0.3750410526315792
H 4.6836900767639955 2.4070099873830633 0.3750410526315792
H 3.4906787377525546 3.2579767054224487 0.3750410526315792
O -1.1641580932795192 -4.33046751175631 -0.37495894736842084
H -0.2641580932795192 -4.33046751175631 -0.37495894736842084
H -1.4571694322909603 -3.479500793716925 -0.37495894736842084
O -2.0082229899861455 3.8668418473125152 -1.1249589473684207
H -1.1082229899861455 3.8668418473125152 -1.1249589473684207
H -2.3012343289975865 4.7178085653519 -1.1249589473684207
O 3.8425424965166677 -1.4031563888095606 -1.8749589473684218
H 4.742542496516668 -1.4031563888095606 -1.8749589473684218
H 3.5495311575052266 -0.5521896707701754 -1.8749589473684218
O -3.378529369968144 -1.3944722047887794 -2.62495894736842
H -2.478529369968144 -1.3944722047887794 -2.62495894736842
H -3.671540708979585 -0.5435054867493943 -2.62495894736842
O 1.261562878960296 2.696025830818506 -3.374958947368421
H 2.161562878960296 2.696025830818506 -3.374958947368421
H 0.9685515399488549 3.546992548857891 -3.374958947368421
O 0.5382410165581539 -1.7158691506278636 -4.124958947368421
H 1.438241016558154 -1.7158691506278636 -4.124958947368421
H 0.24522967754671293 -0.8649024325884784 -4.124958947368421
