55
Molecule with added oxygen and hydrogen atoms
Fe         0.00003        0.00002        0.00004
O          1.49952       -0.88988       -1.04277
H          2.43845       -0.91717       -0.78473
O          0.32558        1.73228       -1.01039
H         -0.16387        2.56585       -0.89013
O         -1.33161       -0.57930       -1.42085
H         -1.83387       -1.41392       -1.42802
O         -1.50018        0.88958        1.04208
H         -1.40630        1.36622        1.88640
O         -0.32487       -1.73209        1.01092
H          0.16365       -2.56603        0.88948
O          1.33152        0.57936        1.42094
H          1.83295        1.41448        1.42871
H          1.58100        0.07007        2.21293
H          0.99827        1.87422       -1.70049
H          1.40489       -1.36560       -1.88752
H         -0.99613       -1.87357        1.70251
H         -1.58040       -0.07045       -2.21335
H         -2.43907        0.91560        0.78377
O 1.7984136633475332 -1.7368421052610967e-05 4.124975263157895
H 2.6984136633475333 -1.7368421052610967e-05 4.124975263157895
H 1.5054023243360921 0.8509493496183326 4.124975263157895
O -2.194779668297922 -2.0105941165316126 3.3749752631578946
H -1.294779668297922 -2.0105941165316126 3.3749752631578946
H -2.487791007309363 -1.1596273984922274 3.3749752631578946
O 0.31952205182855353 3.641035481915358 2.624975263157894
H 1.2195220518285534 3.641035481915358 2.624975263157894
H 0.026510712817112536 4.492002199954743 2.624975263157894
O 2.488958482270986 -3.246453167095954 1.8749752631578946
H 3.388958482270986 -3.246453167095954 1.8749752631578946
H 2.195947143259545 -2.395486449056569 1.8749752631578946
O -4.290524453483816 0.7589118987365892 1.1249752631578946
H -3.3905244534838164 0.7589118987365892 1.1249752631578946
H -4.583535792495257 1.6098786167759744 1.1249752631578946
O 3.7836690241324167 2.4068578821199056 0.374975263157895
H 4.683669024132417 2.4068578821199056 0.374975263157895
H 3.4906576851209756 3.2578246001592905 0.374975263157895
O -1.1641791459110984 -4.330619617019468 -0.3750247368421051
H -0.26417914591109837 -4.330619617019468 -0.3750247368421051
H -1.4571904849225394 -3.479652898980083 -0.3750247368421051
O -2.0082440426177244 3.8666897420493576 -1.125024736842105
H -1.1082440426177245 3.8666897420493576 -1.125024736842105
H -2.3012553816291654 4.717656460088743 -1.125024736842105
O 3.8425214438850888 -1.4033084940727185 -1.875024736842106
H 4.742521443885089 -1.4033084940727185 -1.875024736842106
H 3.5495101048736477 -0.5523417760333333 -1.875024736842106
O -3.378550422599723 -1.3946243100519373 -2.6250247368421045
H -2.478550422599723 -1.3946243100519373 -2.6250247368421045
H -3.671561761611164 -0.5436575920125521 -2.6250247368421045
O 1.2615418263287168 2.6958737255553484 -3.3750247368421054
H 2.1615418263287167 2.6958737255553484 -3.3750247368421054
H 0.9685304873172758 3.546840443594734 -3.3750247368421054
O 0.5382199639265749 -1.7160212558910215 -4.125024736842105
H 1.438219963926575 -1.7160212558910215 -4.125024736842105
H 0.2452086249151339 -0.8650545378516363 -4.125024736842105
