118
Molecule with added oxygen and hydrogen atoms
Fe        -0.00001       -0.00000       -0.00001
C          1.77421       -0.51909       -1.25113
C          1.35091        0.82811        1.57219
C         -0.09852        2.00683       -0.97237
C         -1.77424        0.51908        1.25109
C         -1.35095       -0.82812       -1.57218
C          0.09857       -2.00682        0.97238
N          2.70537       -0.79150       -1.90767
N          2.05989        1.26272        2.39728
N         -0.15020        3.06004       -1.48266
N         -2.70538        0.79151        1.90767
N         -2.05994       -1.26273       -2.39726
N          0.15032       -3.06002        1.48269
O 1.8200074187402424 7.692307692016479e-07 4.553383448551625
H 2.7200074187402423 7.692307692016479e-07 4.553383448551625
H 1.5269960797288014 0.8509674872701544 4.553383448551625
O -2.2366895703580667 -2.0489922108013072 3.8528631546916117
H -1.3366895703580668 -2.0489922108013072 3.8528631546916117
H -2.5297009093695078 -1.198025492761922 3.8528631546916117
O 0.32838396228785016 3.7417403512406566 3.152342860831599
H 1.2283839622878503 3.7417403512406566 3.152342860831599
H 0.035372623276409165 4.592707069280042 3.152342860831599
O 2.583846593422968 -3.370166552228092 2.4518225669715856
H 3.483846593422968 -3.370166552228092 2.4518225669715856
H 2.290835254411527 -2.519199834188707 2.4518225669715856
O -4.510227451594466 0.7977969077489218 1.751302273111572
H -3.6102274515944663 0.7977969077489218 1.751302273111572
H -4.803238790605907 1.648763625788307 1.751302273111572
O 4.0413669726695325 2.5707861615385172 1.0507819792515591
H 4.941366972669533 2.5707861615385172 1.0507819792515591
H 3.7483556336580914 3.4217528795779026 1.0507819792515591
O -1.2697526614448313 -4.723424425604052 0.35026168539154534
H -0.3697526614448313 -4.723424425604052 0.35026168539154534
H -1.5627640004562724 -3.872457707564667 0.35026168539154534
O -2.2543477700619254 4.340614663575474 -0.3502586084684679
H -1.3543477700619255 4.340614663575474 -0.3502586084684679
H -2.5473591090733665 5.191581381614859 -0.3502586084684679
O 4.499102839996417 -1.6430635292220512 -1.0507789023284808
H 5.399102839996417 -1.6430635292220512 -1.0507789023284808
H 4.206091500984976 -0.7920968111826661 -1.0507789023284808
O -4.23372750034601 -1.7476213503129079 -1.7512991961884947
H -3.33372750034601 -1.7476213503129079 -1.7512991961884947
H -4.526738839357451 -0.8966546322735227 -1.7512991961884947
O 1.7999400213559424 3.8463631149365805 -2.4518194900485084
H 2.6999400213559426 3.8463631149365805 -2.4518194900485084
H 1.5069286823445014 4.697329832975965 -2.4518194900485084
O 1.1241489009098866 -3.5839557103615474 -3.15233978390852
H 2.0241489009098865 -3.5839557103615474 -3.15233978390852
H 0.8311375618984456 -2.732988992322162 -3.15233978390852
O -2.6244790654524257 1.520941370166116 -3.8528600777685345
H -1.7244790654524258 1.520941370166116 -3.8528600777685345
H -2.9174904044638668 2.371908088205501 -3.8528600777685345
O 1.7775572075322918 0.39079122752711626 -4.553380371628548
H 2.677557207532292 0.39079122752711626 -4.553380371628548
H 1.4845458685208508 1.2417579455665013 -4.553380371628548
O 2.3928703450272644 0.22161775299734493 6.847488856367143
H 3.2928703450272643 0.22161775299734493 6.847488856367143
H 2.0998590060158233 1.07258447103673 6.847488856367143
O -2.530126599553414 -2.279955847372906 6.162740124576583
H -1.6301265995534142 -2.279955847372906 6.162740124576583
H -2.823137938564855 -1.4289891293335206 6.162740124576583
O 0.6077284082914193 4.860581916523183 5.477991392786022
H 1.5077284082914193 4.860581916523183 5.477991392786022
H 0.3147170692799783 5.711548634562568 5.477991392786022
O 3.461232550012082 -4.0312938246489285 4.793242660995463
H 4.361232550012082 -4.0312938246489285 4.793242660995463
H 3.168221211000641 -3.1803271066095435 4.793242660995463
O -5.609572097666256 1.2493562266823006 4.108493929204901
H -4.709572097666256 1.2493562266823006 4.108493929204901
H -5.9025834366776975 2.100322944721686 4.108493929204901
O 5.535119755969335 3.614999544402998 3.4237451974143416
H 6.435119755969335 3.614999544402998 3.4237451974143416
H 5.242108416957894 4.465966262442383 3.4237451974143416
O -1.525168795215649 -6.198173794306048 2.738996465623781
H -0.6251687952156489 -6.198173794306048 2.738996465623781
H -1.81818013422709 -5.347207076266663 2.738996465623781
O -2.975114346338772 6.336271615412672 2.0542477338332197
H -2.075114346338772 6.336271615412672 2.0542477338332197
H -3.268125685350213 7.187238333452057 2.0542477338332197
O 6.830548967170746 -2.199627243598804 1.3694990020426594
H 7.730548967170747 -2.199627243598804 1.3694990020426594
H 6.537537628159305 -1.3486605255594186 1.3694990020426594
O -6.415103083527991 -2.5092502666685603 0.6847502702520998
H -5.515103083527991 -2.5092502666685603 0.6847502702520998
H -6.708114422539432 -1.6582835486291752 0.6847502702520998
O 3.247998824115003 6.733721894950182 1.538461539064661e-06
H 4.147998824115003 6.733721894950182 1.538461539064661e-06
H 2.954987485103562 7.5846886129895665 1.538461539064661e-06
O 2.342633330722592 -6.6075069158201 -0.6847471933290217
H 3.242633330722592 -6.6075069158201 -0.6847471933290217
H 2.049621991711151 -5.756540197780715 -0.6847471933290217
O -5.906253562624574 3.7606669680110807 -1.3694959251195815
H -5.006253562624574 3.7606669680110807 -1.3694959251195815
H -6.199264901636015 4.611633686050466 -1.3694959251195815
O 6.930048501148414 1.7010670853255607 -2.054244656910143
H 7.830048501148414 1.7010670853255607 -2.054244656910143
H 6.637037162136973 2.552033803364946 -2.054244656910143
O -3.6226875968724537 -5.216622173087748 -2.738993388700703
H -2.7226875968724538 -5.216622173087748 -2.738993388700703
H -3.9156989358838947 -4.365655455048363 -2.738993388700703
O -0.6118846207151136 6.4915421083146585 -3.423742120491265
H 0.2881153792848864 6.4915421083146585 -3.423742120491265
H -0.9048959597265547 7.3425088263540434 -3.423742120491265
O 4.712319016737609 -3.580859812086581 -4.1084908522818235
H 5.612319016737609 -3.580859812086581 -4.1084908522818235
H 4.4193076777261675 -2.7298930940471955 -4.1084908522818235
O -5.153825444660969 0.0001952542005908553 -4.793239584072385
H -4.2538254446609685 0.0001952542005908553 -4.793239584072385
H -5.44683678367241 0.851161972239976 -4.793239584072385
O 3.5014779039320207 3.5064274237948507 -5.4779883158629445
H 4.401477903932021 3.5064274237948507 -5.4779883158629445
H 3.2084665649205797 4.357394141834236 -5.4779883158629445
O 0.029541884356108772 -3.477774311826347 -6.162737047653506
H 0.9295418843561087 -3.477774311826347 -6.162737047653506
H -0.2634694546553322 -2.626807593786962 -6.162737047653506
O -1.2039998739676212 1.9048035208567835 -6.8474857794440664
H -0.3039998739676212 1.9048035208567835 -6.8474857794440664
H -1.4970112129790623 2.7557702388961687 -6.8474857794440664
