112
Molecule with added oxygen and hydrogen atoms
Fe        -0.00005       -0.00018        0.00006
C         -1.42306        1.39194       -0.02169
C         -1.39203       -1.42336       -0.01658
C          0.02706       -0.00348       -1.98599
C          1.42326       -1.39196        0.02171
C          1.39168        1.42333        0.01664
C         -0.02715        0.00310        1.98610
N         -2.25983        2.21101       -0.03460
N         -2.21082       -2.26042       -0.02639
N          0.04301       -0.00538       -3.15811
N          2.26110       -2.20998        0.03416
N          2.21010        2.26076        0.02633
N         -0.04320        0.00504        3.15821
O 1.793072901477051 3.2307692307687056e-05 4.303350502006463
H 2.693072901477051 3.2307692307687056e-05 4.303350502006463
H 1.50006156246561 0.8509990257316928 4.303350502006463
O -2.1965187905050874 -2.0121637660984297 3.5861234952617953
H -1.2965187905050874 -2.0121637660984297 3.5861234952617953
H -2.4895301295165284 -1.1611970480590446 3.5861234952617953
O 0.3212682505037887 3.660656964100544 2.868896488517129
H 1.2212682505037886 3.660656964100544 2.868896488517129
H 0.028256911492347714 4.51162368213993 2.868896488517129
O 2.5163458626662742 -3.282088250278221 2.1516694817724615
H 3.416345862666274 -3.282088250278221 2.1516694817724615
H 2.223334523654833 -2.431121532238836 2.1516694817724615
O -4.3679906910214905 0.7726693102818628 1.4344424750277962
H -3.4679906910214906 0.7726693102818628 1.4344424750277962
H -4.661002030032932 1.6236360283212479 1.4344424750277962
O 3.886742091593516 2.4724560502555164 0.7172154682831287
H 4.786742091593516 2.4724560502555164 0.7172154682831287
H 3.5937307525820748 3.3234227682949014 0.7172154682831287
O -1.2102635359110379 -4.502107751365516 -1.1538461538183343e-05
H -0.31026353591103784 -4.502107751365516 -1.1538461538183343e-05
H -1.503274874922479 -3.651141033326131 -1.1538461538183343e-05
O -2.123150775081154 4.08804029615125 -0.7172385452062051
H -1.2231507750811539 4.08804029615125 -0.7172385452062051
H -2.416162114092595 4.939007014190635 -0.7172385452062051
O 4.166650604053609 -1.521619843714945 -1.4344655519508724
H 5.066650604053609 -1.521619843714945 -1.4344655519508724
H 3.8736392650421676 -0.6706531256755599 -1.4344655519508724
O -3.822840734835291 -1.5779829981685252 -2.1516925586955393
H -2.922840734835291 -1.5779829981685252 -2.1516925586955393
H -4.115852073846732 -0.72701628012914 -2.1516925586955393
O 1.55751010654078 3.328329431640656 -2.868919565440206
H 2.45751010654078 3.328329431640656 -2.868919565440206
H 1.2644987675293389 4.179296149680042 -2.868919565440206
O 0.8915323570987327 -2.8422961653385985 -3.5861465721848726
H 1.7915323570987327 -2.8422961653385985 -3.5861465721848726
H 0.5985210180872917 -1.9913294472992134 -3.5861465721848726
O -1.5513767308177129 0.8990899543083583 -4.3033735789295395
H -0.6513767308177129 0.8990899543083583 -4.3033735789295395
H -1.844388069829154 1.7500566723477435 -4.3033735789295395
O 2.313443282796162 0.18292372986366898 6.60120546288212
H 3.213443282796162 0.18292372986366898 6.60120546288212
H 2.020431943784721 1.0338904479030542 6.60120546288212
O -2.55535768940573 -2.289660023135899 5.9063405153722615
H -1.6553576894057302 -2.289660023135899 5.9063405153722615
H -2.848369028417171 -1.4386933050965138 5.9063405153722615
O 0.5455455193060571 4.761425066975327 5.211475567862403
H 1.4455455193060571 4.761425066975327 5.211475567862403
H 0.2525341802946161 5.612391785014712 5.211475567862403
O 3.3565995836721325 -4.007698078807316 4.5166106203525445
H 4.256599583672132 -4.007698078807316 4.5166106203525445
H 3.0635882446606915 -3.156731360767931 4.5166106203525445
O -5.5708265403530275 1.193747996533519 3.821745672842686
H -4.670826540353027 1.193747996533519 3.821745672842686
H -5.8638378793644685 2.044714714572904 3.821745672842686
O 5.37951868554972 3.5135050719729324 3.126880725332826
H 6.2795186855497205 3.5135050719729324 3.126880725332826
H 5.086507346538279 4.364471790012318 3.126880725332826
O -1.5460739639664618 -6.103056016856103 2.4320157778229676
H -0.6460739639664618 -6.103056016856103 2.4320157778229676
H -1.8390853029779028 -5.252089298816718 2.4320157778229676
O -2.9572547084958454 6.1536775817592675 1.7371508303131087
H -2.0572547084958455 6.1536775817592675 1.7371508303131087
H -3.2502660475072864 7.004644299798652 1.7371508303131087
O 6.5968959492060675 -2.173762789587469 1.0422858828032495
H 7.496895949206068 -2.173762789587469 1.0422858828032495
H 6.303884610194626 -1.322796071548084 1.0422858828032495
O -6.271191368054874 -2.465061806511592 0.34742093529339174
H -5.371191368054873 -2.465061806511592 0.34742093529339174
H -6.564202707066315 -1.614095088472207 0.34742093529339174
O 3.0852016802819024 6.468681746909871 -0.3474440122164678
H 3.9852016802819024 6.468681746909871 -0.3474440122164678
H 2.7921903412704614 7.319648464949256 -0.3474440122164678
O 2.199818034656189 -6.37221472187187 -1.0423089597263258
H 3.099818034656189 -6.37221472187187 -1.0423089597263258
H 1.906806695644748 -5.521248003832485 -1.0423089597263258
O -5.677413638989736 3.556394399657182 -1.737173907236185
H -4.777413638989736 3.556394399657182 -1.737173907236185
H -5.970424978001177 4.407361117696567 -1.737173907236185
O 6.501052710465789 1.5805636942733492 -2.432038854746046
H 7.401052710465789 1.5805636942733492 -2.432038854746046
H 6.208041371454348 2.4315304123127346 -2.432038854746046
O -3.4251468523796285 -4.893433754040967 -3.1269038022559044
H -2.5251468523796285 -4.893433754040967 -3.1269038022559044
H -3.7181581913910695 -4.042467036001582 -3.1269038022559044
O -0.602053593363556 5.938070199999812 -3.821768749765762
H 0.297946406636444 5.938070199999812 -3.821768749765762
H -0.8950649323749971 6.789036918039197 -3.821768749765762
O 4.181469765826047 -3.220089153641744 -4.516633697275621
H 5.081469765826047 -3.220089153641744 -4.516633697275621
H 3.888458426814606 -2.3691224356023586 -4.516633697275621
O -4.448446614251451 -0.006977115203050638 -5.21149864478548
H -3.5484466142514512 -0.006977115203050638 -5.21149864478548
H -4.741457953262892 0.8439896028363345 -5.21149864478548
O 2.7383473893150763 2.7649163907037737 -5.90636359229534
H 3.638347389315076 2.7649163907037737 -5.90636359229534
H 2.445336050303635 3.6158831087431587 -5.90636359229534
O 0.04350590172356007 -1.9844754313369084 -6.601228539805197
H 0.9435059017235601 -1.9844754313369084 -6.601228539805197
H -0.24950543728788094 -1.1335087132975232 -6.601228539805197
