 xtb: 6.6.0 (conda-forge)
          07232410583D

124 89  0     0  0            999 V2000
    0.0885    1.9316   -0.6613 Fe  0  0  0  0  0  0  0  0  0  0  0  0
    2.4397    1.5120    0.9481 C   0  0  0  0  0  0  0  0  0  0  0  0
    0.6799   -0.5573   -2.0640 C   0  0  0  0  0  0  0  0  0  0  0  0
    3.5068    1.2706    1.7510 C   0  0  0  0  0  0  0  0  0  0  0  0
    0.9847   -1.8448   -2.4075 C   0  0  0  0  0  0  0  0  0  0  0  0
   -1.8806   -1.0731    1.5512 C   0  0  0  0  0  0  0  0  0  0  0  0
   -1.2875    0.0226    1.0042 C   0  0  0  0  0  0  0  0  0  0  0  0
    1.5363    1.6899    0.2479 N   0  0  0  0  0  0  0  0  0  0  0  0
    0.4279    0.4644   -1.5904 N   0  0  0  0  0  0  0  0  0  0  0  0
    4.4323    1.0631    2.4034 N   0  0  0  0  0  0  0  0  0  0  0  0
    1.2262   -2.9438   -2.6295 N   0  0  0  0  0  0  0  0  0  0  0  0
   -2.3776   -2.0269    1.9563 N   0  0  0  0  0  0  0  0  0  0  0  0
   -0.7999    0.9126    0.4508 N   0  0  0  0  0  0  0  0  0  0  0  0
    1.0809   -0.1709    2.5163 O   0  0  0  0  0  0  0  0  0  0  0  0
    0.7515   -0.7881    3.1946 H   0  0  0  0  0  0  0  0  0  0  0  0
    0.8693    0.7180    2.8620 H   0  0  0  0  0  0  0  0  0  0  0  0
   -1.7515    0.4098    3.8827 O   0  0  0  0  0  0  0  0  0  0  0  0
   -1.8519    0.9068    4.7142 H   0  0  0  0  0  0  0  0  0  0  0  0
   -1.2892   -0.4075    4.1113 H   0  0  0  0  0  0  0  0  0  0  0  0
    0.6400    2.3503    3.3780 O   0  0  0  0  0  0  0  0  0  0  0  0
    1.2554    3.0129    3.0294 H   0  0  0  0  0  0  0  0  0  0  0  0
    0.6581    2.4148    4.3581 H   0  0  0  0  0  0  0  0  0  0  0  0
    1.7404   -1.6495    0.3776 O   0  0  0  0  0  0  0  0  0  0  0  0
    2.0969   -2.4779    0.8094 H   0  0  0  0  0  0  0  0  0  0  0  0
    1.5305   -1.0589    1.1252 H   0  0  0  0  0  0  0  0  0  0  0  0
   -3.6152    1.5012    2.3181 O   0  0  0  0  0  0  0  0  0  0  0  0
   -3.0177    0.9765    2.8916 H   0  0  0  0  0  0  0  0  0  0  0  0
   -4.2094    0.8547    1.8883 H   0  0  0  0  0  0  0  0  0  0  0  0
    2.1583    4.1244    1.9068 O   0  0  0  0  0  0  0  0  0  0  0  0
    3.0523    4.3235    1.6035 H   0  0  0  0  0  0  0  0  0  0  0  0
    1.5400    4.4294    1.2347 H   0  0  0  0  0  0  0  0  0  0  0  0
   -0.3806   -3.3318   -0.0248 O   0  0  0  0  0  0  0  0  0  0  0  0
    0.1156   -4.1399   -0.2871 H   0  0  0  0  0  0  0  0  0  0  0  0
    0.3044   -2.6373    0.0402 H   0  0  0  0  0  0  0  0  0  0  0  0
   -0.3025    3.6733    0.3595 O   0  0  0  0  0  0  0  0  0  0  0  0
   -0.8163    4.3193   -0.1680 H   0  0  0  0  0  0  0  0  0  0  0  0
   -0.8214    3.6059    1.2342 H   0  0  0  0  0  0  0  0  0  0  0  0
    3.8902   -1.1899   -1.2191 O   0  0  0  0  0  0  0  0  0  0  0  0
    4.6164   -0.8392   -0.6844 H   0  0  0  0  0  0  0  0  0  0  0  0
    3.1335   -1.3466   -0.6175 H   0  0  0  0  0  0  0  0  0  0  0  0
   -2.8404   -0.3108   -1.1823 O   0  0  0  0  0  0  0  0  0  0  0  0
   -2.5855   -1.1647   -1.5725 H   0  0  0  0  0  0  0  0  0  0  0  0
   -3.3949    0.1428   -1.8404 H   0  0  0  0  0  0  0  0  0  0  0  0
    1.0341    3.1042   -2.0716 O   0  0  0  0  0  0  0  0  0  0  0  0
    1.9230    2.8963   -2.4342 H   0  0  0  0  0  0  0  0  0  0  0  0
    1.0311    4.0739   -1.8985 H   0  0  0  0  0  0  0  0  0  0  0  0
    2.5370   -5.4014   -2.7556 O   0  0  0  0  0  0  0  0  0  0  0  0
    3.2681   -4.7683   -2.6892 H   0  0  0  0  0  0  0  0  0  0  0  0
    1.9807   -5.0540   -3.4628 H   0  0  0  0  0  0  0  0  0  0  0  0
   -1.6097    2.3798   -1.7572 O   0  0  0  0  0  0  0  0  0  0  0  0
   -1.7864    1.9768   -2.6430 H   0  0  0  0  0  0  0  0  0  0  0  0
   -2.4639    2.3369   -1.2390 H   0  0  0  0  0  0  0  0  0  0  0  0
    2.7474   -0.0152   -3.4375 O   0  0  0  0  0  0  0  0  0  0  0  0
    3.2728   -0.4415   -2.7413 H   0  0  0  0  0  0  0  0  0  0  0  0
    2.9867    0.9220   -3.4147 H   0  0  0  0  0  0  0  0  0  0  0  0
   -0.9872   -0.8980   -3.8551 O   0  0  0  0  0  0  0  0  0  0  0  0
   -0.2767   -1.0804   -4.5312 H   0  0  0  0  0  0  0  0  0  0  0  0
   -1.3926   -1.7329   -3.5916 H   0  0  0  0  0  0  0  0  0  0  0  0
   -0.1298   -1.8762    4.2784 O   0  0  0  0  0  0  0  0  0  0  0  0
    0.2510   -2.1606    5.1110 H   0  0  0  0  0  0  0  0  0  0  0  0
   -0.2164   -2.6746    3.7149 H   0  0  0  0  0  0  0  0  0  0  0  0
   -2.2938    1.9773    6.0760 O   0  0  0  0  0  0  0  0  0  0  0  0
   -2.7696    1.6806    6.8536 H   0  0  0  0  0  0  0  0  0  0  0  0
   -2.9292    2.5257    5.5562 H   0  0  0  0  0  0  0  0  0  0  0  0
    0.3898    2.5519    6.0179 O   0  0  0  0  0  0  0  0  0  0  0  0
   -0.5580    2.3606    6.1365 H   0  0  0  0  0  0  0  0  0  0  0  0
    0.6075    3.2678    6.6162 H   0  0  0  0  0  0  0  0  0  0  0  0
    2.3748   -3.9347    1.4797 O   0  0  0  0  0  0  0  0  0  0  0  0
    2.1515   -4.5750    0.7784 H   0  0  0  0  0  0  0  0  0  0  0  0
    1.7071   -4.0649    2.1653 H   0  0  0  0  0  0  0  0  0  0  0  0
   -3.9840    3.2517    4.4667 O   0  0  0  0  0  0  0  0  0  0  0  0
   -4.1015    2.6620    3.7043 H   0  0  0  0  0  0  0  0  0  0  0  0
   -3.6999    4.1010    4.1218 H   0  0  0  0  0  0  0  0  0  0  0  0
    4.9991    4.2203    1.4331 O   0  0  0  0  0  0  0  0  0  0  0  0
    5.2410    3.8180    2.2730 H   0  0  0  0  0  0  0  0  0  0  0  0
    5.4774    5.0521    1.3732 H   0  0  0  0  0  0  0  0  0  0  0  0
   -0.2598   -4.0095    2.6226 O   0  0  0  0  0  0  0  0  0  0  0  0
   -0.9505   -4.6169    2.8943 H   0  0  0  0  0  0  0  0  0  0  0  0
   -0.4709   -3.7426    1.7030 H   0  0  0  0  0  0  0  0  0  0  0  0
   -1.6144    3.4207    2.5075 O   0  0  0  0  0  0  0  0  0  0  0  0
   -0.8912    2.9669    2.9981 H   0  0  0  0  0  0  0  0  0  0  0  0
   -2.3229    2.7703    2.4055 H   0  0  0  0  0  0  0  0  0  0  0  0
    6.0469   -0.0633    0.2684 O   0  0  0  0  0  0  0  0  0  0  0  0
    6.9349   -0.3762    0.0770 H   0  0  0  0  0  0  0  0  0  0  0  0
    5.9399   -0.0794    1.2272 H   0  0  0  0  0  0  0  0  0  0  0  0
   -4.8170   -0.1983    0.6593 O   0  0  0  0  0  0  0  0  0  0  0  0
   -4.1031   -0.3422    0.0037 H   0  0  0  0  0  0  0  0  0  0  0  0
   -5.2417   -1.0413    0.8196 H   0  0  0  0  0  0  0  0  0  0  0  0
    0.8578    5.7103   -1.5723 O   0  0  0  0  0  0  0  0  0  0  0  0
    1.2073    6.4207   -2.1135 H   0  0  0  0  0  0  0  0  0  0  0  0
   -0.1015    5.8343   -1.5290 H   0  0  0  0  0  0  0  0  0  0  0  0
    1.2205   -5.4328   -0.5016 O   0  0  0  0  0  0  0  0  0  0  0  0
    1.0175   -6.3588   -0.3594 H   0  0  0  0  0  0  0  0  0  0  0  0
    1.7170   -5.3971   -1.3671 H   0  0  0  0  0  0  0  0  0  0  0  0
   -3.7348    2.6002   -0.3170 O   0  0  0  0  0  0  0  0  0  0  0  0
   -3.7251    2.2529    0.5874 H   0  0  0  0  0  0  0  0  0  0  0  0
   -4.4176    2.1123   -0.7916 H   0  0  0  0  0  0  0  0  0  0  0  0
    4.7072    2.2800   -0.5866 O   0  0  0  0  0  0  0  0  0  0  0  0
    5.2872    1.5318   -0.3844 H   0  0  0  0  0  0  0  0  0  0  0  0
    4.9105    2.9882    0.0415 H   0  0  0  0  0  0  0  0  0  0  0  0
   -2.0609   -2.7934   -2.0662 O   0  0  0  0  0  0  0  0  0  0  0  0
   -2.6559   -3.5381   -2.1720 H   0  0  0  0  0  0  0  0  0  0  0  0
   -1.4609   -3.0215   -1.3219 H   0  0  0  0  0  0  0  0  0  0  0  0
   -1.8578    5.1009   -1.3244 O   0  0  0  0  0  0  0  0  0  0  0  0
   -1.9461    4.2793   -1.8341 H   0  0  0  0  0  0  0  0  0  0  0  0
   -2.7261    5.2996   -0.9661 H   0  0  0  0  0  0  0  0  0  0  0  0
    4.3400   -3.2688   -2.9704 O   0  0  0  0  0  0  0  0  0  0  0  0
    5.2894   -3.3922   -3.0195 H   0  0  0  0  0  0  0  0  0  0  0  0
    4.1722   -2.5585   -2.3238 H   0  0  0  0  0  0  0  0  0  0  0  0
   -4.4895    1.2126   -2.7684 O   0  0  0  0  0  0  0  0  0  0  0  0
   -3.8500    1.3924   -3.4761 H   0  0  0  0  0  0  0  0  0  0  0  0
   -5.3255    1.0007   -3.1865 H   0  0  0  0  0  0  0  0  0  0  0  0
    3.4952    2.6153   -2.9199 O   0  0  0  0  0  0  0  0  0  0  0  0
    3.9910    2.4904   -2.0810 H   0  0  0  0  0  0  0  0  0  0  0  0
    4.0317    3.1686   -3.4907 H   0  0  0  0  0  0  0  0  0  0  0  0
    2.4945   -3.5629   -5.1080 O   0  0  0  0  0  0  0  0  0  0  0  0
    2.9359   -3.9597   -5.8612 H   0  0  0  0  0  0  0  0  0  0  0  0
    3.1758   -3.3692   -4.4443 H   0  0  0  0  0  0  0  0  0  0  0  0
   -2.1349    1.4158   -4.1536 O   0  0  0  0  0  0  0  0  0  0  0  0
   -1.7445    0.5066   -4.0757 H   0  0  0  0  0  0  0  0  0  0  0  0
   -1.7367    1.8089   -4.9320 H   0  0  0  0  0  0  0  0  0  0  0  0
    1.1059   -1.2079   -5.3696 O   0  0  0  0  0  0  0  0  0  0  0  0
    1.4768   -2.1085   -5.4022 H   0  0  0  0  0  0  0  0  0  0  0  0
    1.7476   -0.6943   -4.8563 H   0  0  0  0  0  0  0  0  0  0  0  0
  2  4  1  0  0  0  0
  3  5  1  0  0  0  0
  6  7  1  0  0  0  0
  1  8  1  0  0  0  0
  2  8  3  0  0  0  0
  1  9  1  0  0  0  0
  3  9  3  0  0  0  0
  4 10  3  0  0  0  0
  5 11  3  0  0  0  0
  6 12  3  0  0  0  0
  1 13  1  0  0  0  0
  7 13  3  0  0  0  0
 14 15  1  0  0  0  0
 14 16  1  0  0  0  0
 17 18  1  0  0  0  0
 17 19  1  0  0  0  0
 20 21  1  0  0  0  0
 20 22  1  0  0  0  0
 23 24  1  0  0  0  0
 23 25  1  0  0  0  0
 26 27  1  0  0  0  0
 26 28  1  0  0  0  0
 29 30  1  0  0  0  0
 29 31  1  0  0  0  0
 32 33  1  0  0  0  0
 32 34  1  0  0  0  0
  1 35  1  0  0  0  0
 35 36  1  0  0  0  0
 35 37  1  0  0  0  0
 38 39  1  0  0  0  0
 38 40  1  0  0  0  0
 41 42  1  0  0  0  0
 41 43  1  0  0  0  0
  1 44  1  0  0  0  0
 44 45  1  0  0  0  0
 44 46  1  0  0  0  0
 47 48  1  0  0  0  0
 47 49  1  0  0  0  0
  1 50  1  0  0  0  0
 50 51  1  0  0  0  0
 50 52  1  0  0  0  0
 53 54  1  0  0  0  0
 53 55  1  0  0  0  0
 56 57  1  0  0  0  0
 56 58  1  0  0  0  0
 59 60  1  0  0  0  0
 59 61  1  0  0  0  0
 62 63  1  0  0  0  0
 62 64  1  0  0  0  0
 65 66  1  0  0  0  0
 65 67  1  0  0  0  0
 68 69  1  0  0  0  0
 68 70  1  0  0  0  0
 71 72  1  0  0  0  0
 71 73  1  0  0  0  0
 74 75  1  0  0  0  0
 74 76  1  0  0  0  0
 77 78  1  0  0  0  0
 77 79  1  0  0  0  0
 80 81  1  0  0  0  0
 80 82  1  0  0  0  0
 83 84  1  0  0  0  0
 83 85  1  0  0  0  0
 86 87  1  0  0  0  0
 86 88  1  0  0  0  0
 89 90  1  0  0  0  0
 89 91  1  0  0  0  0
 92 93  1  0  0  0  0
 92 94  1  0  0  0  0
 95 96  1  0  0  0  0
 95 97  1  0  0  0  0
 98 99  1  0  0  0  0
 98100  1  0  0  0  0
101102  1  0  0  0  0
101103  1  0  0  0  0
104105  1  0  0  0  0
104106  1  0  0  0  0
107108  1  0  0  0  0
107109  1  0  0  0  0
110111  1  0  0  0  0
110112  1  0  0  0  0
113114  1  0  0  0  0
113115  1  0  0  0  0
116117  1  0  0  0  0
116118  1  0  0  0  0
119120  1  0  0  0  0
119121  1  0  0  0  0
122123  1  0  0  0  0
122124  1  0  0  0  0
M  CHG  1   1   2
M  END
