181
Molecule with added oxygen and hydrogen atoms
Cr        -0.00000       -0.00001       -0.00000
O         -0.86766       -0.00074       -1.90255
H         -1.83752       -0.00084       -2.02893
O          0.00028       -2.09396        0.00066
H          0.30617       -2.66954        0.72839
O          2.32622       -0.00001       -0.70229
H          2.85923        0.77558       -0.96798
O          0.86765        0.00072        1.90255
H          0.44020        0.00096        2.78147
O         -0.00028        2.09395       -0.00067
H         -0.30602        2.66953       -0.72846
O         -2.32621        0.00004        0.70231
H         -2.85922       -0.77553        0.96805
H         -2.85929        0.77577        0.96747
H         -0.30563       -2.67008       -0.72662
H         -0.44022       -0.00104       -2.78148
H          0.30552        2.67007        0.72665
H          2.85931       -0.77572       -0.96749
H          1.83750        0.00087        2.02894
O 1.7984384001896385 1.052631578934766e-06 4.125001052631579
H 2.6984384001896387 1.052631578934766e-06 4.125001052631579
H 1.5054270611781975 0.8509677706709641 4.125001052631579
O -2.1947549314558166 -2.0105756954789813 3.375001052631579
H -1.2947549314558167 -2.0105756954789813 3.375001052631579
H -2.4877662704672576 -1.1596089774395961 3.375001052631579
O 0.31954678867065883 3.641053902967989 2.6250010526315783
H 1.2195467886706588 3.641053902967989 2.6250010526315783
H 0.026535449659217836 4.4920206210073745 2.6250010526315783
O 2.4889832191130914 -3.246434746043323 1.875001052631579
H 3.3889832191130913 -3.246434746043323 1.875001052631579
H 2.1959718801016503 -2.395468028003938 1.875001052631579
O -4.290499716641711 0.7589303197892207 1.125001052631579
H -3.390499716641711 0.7589303197892207 1.125001052631579
H -4.583511055653152 1.6098970378286057 1.125001052631579
O 3.783693760974522 2.406876303172537 0.37500105263157923
H 4.683693760974522 2.406876303172537 0.37500105263157923
H 3.490682421963081 3.2578430212119223 0.37500105263157923
O -1.164154409068993 -4.330601195966836 -0.3749989473684208
H -0.264154409068993 -4.330601195966836 -0.3749989473684208
H -1.457165748080434 -3.4796344779274513 -0.3749989473684208
O -2.008219305775619 3.866708163101989 -1.1249989473684205
H -1.1082193057756191 3.866708163101989 -1.1249989473684205
H -2.30123064478706 4.717674881141374 -1.1249989473684205
O 3.842546180727194 -1.4032900730200868 -1.8749989473684217
H 4.742546180727194 -1.4032900730200868 -1.8749989473684217
H 3.549534841715753 -0.5523233549807016 -1.8749989473684217
O -3.3785256857576176 -1.3946058889993056 -2.6249989473684203
H -2.4785256857576177 -1.3946058889993056 -2.6249989473684203
H -3.6715370247690586 -0.5436391709599204 -2.6249989473684203
O 1.2615665631708222 2.6958921466079797 -3.374998947368421
H 2.161566563170822 2.6958921466079797 -3.374998947368421
H 0.9685552241593811 3.5468588646473647 -3.374998947368421
O 0.5382447007686803 -1.7160028348383898 -4.124998947368421
H 1.4382447007686803 -1.7160028348383898 -4.124998947368421
H 0.24523336175723925 -0.8650361167990046 -4.124998947368421
O 2.3231710643808525 0.14573590869537706 6.138889941520468
H 3.2231710643808524 0.14573590869537706 6.138889941520468
H 2.0301597253694115 0.9967026267347623 6.138889941520468
O -2.462564971909929 -2.2813076015295404 5.416667719298246
H -1.562564971909929 -2.2813076015295404 5.416667719298246
H -2.75557631092137 -1.4303408834901552 5.416667719298246
O 0.5798572381253928 4.624318762458805 4.694445497076024
H 1.4798572381253927 4.624318762458805 4.694445497076024
H 0.2868458991139518 5.47528548049819 4.694445497076024
O 3.3172520265032492 -3.9373727816604216 3.972223274853802
H 4.21725202650325 -3.9373727816604216 3.972223274853802
H 3.024240687491808 -3.0864060636210366 3.972223274853802
O -5.3563058887760215 1.1262348691052264 3.2500010526315806
H -4.456305888776021 1.1262348691052264 3.2500010526315806
H -5.649317227787463 1.9772015871446116 3.2500010526315806
O 5.239511206732335 3.3598515122030292 2.5277788304093574
H 6.139511206732335 3.3598515122030292 2.5277788304093574
H 4.946499867720894 4.210818230242414 2.5277788304093574
O -1.4342109392918347 -5.884377170676813 1.8055566081871353
H -0.5342109392918347 -5.884377170676813 1.8055566081871353
H -1.7272222783032758 -5.033410452637428 1.8055566081871353
O -2.7671840378778505 5.833469595396862 1.0833343859649132
H -1.8671840378778506 5.833469595396862 1.0833343859649132
H -3.0601953768892916 6.684436313436247 1.0833343859649132
O 6.2829678607686645 -2.080571558887802 0.3611121637426911
H 7.182967860768665 -2.080571558887802 0.3611121637426911
H 5.9899565217572235 -1.229604840848417 0.3611121637426911
O -5.812158044295621 -2.330550448113477 -0.36111005847953104
H -4.91215804429562 -2.330550448113477 -0.36111005847953104
H -6.105169383307062 -1.479583730074092 -0.36111005847953104
O 2.90327453647208 5.950665145649272 -1.0833322807017531
H 3.8032745364720797 5.950665145649272 -1.0833322807017531
H 2.6102631974606387 6.801631863688657 -1.0833322807017531
O 2.0555956810099287 -5.812250762948376 -1.8055545029239752
H 2.9555956810099286 -5.812250762948376 -1.8055545029239752
H 1.7625843419984877 -4.961284044908991 -1.8055545029239752
O -4.994378900779037 3.148340156173027 -2.5277767251461976
H -4.094378900779037 3.148340156173027 -2.5277767251461976
H -5.287390239790478 3.9993068742124125 -2.5277767251461976
O 5.684678123432124 1.3544270302280903 -3.249998947368421
H 6.584678123432124 1.3544270302280903 -3.249998947368421
H 5.391666784420683 2.2053937482674755 -3.249998947368421
O -2.7722557809768187 -4.063229131531724 -3.972221169590642
H -1.8722557809768188 -4.063229131531724 -3.972221169590642
H -3.0652671199882597 -3.212262413492339 -3.972221169590642
O -0.39094906308428795 4.604254392502309 -4.694443391812865
H 0.5090509369157121 4.604254392502309 -4.694443391812865
H -0.683960402095729 5.455221110541694 -4.694443391812865
O 2.9342005525877566 -2.1697686674320846 -5.416665614035087
H 3.8342005525877565 -2.1697686674320846 -5.416665614035087
H 2.6411892135763155 -1.3188019493926995 -5.416665614035087
O -1.947728885521541 0.057466068939187806 -6.138887836257309
H -1.0477288855215412 0.057466068939187806 -6.138887836257309
H -2.240740224532982 0.908432786978573 -6.138887836257309
O 2.715646189540197 0.2593475399877753 8.145834385964914
H 3.615646189540197 0.2593475399877753 8.145834385964914
H 2.422634850528756 1.1103142580271605 8.145834385964914
O -2.7467041194613815 -2.5203252864743284 7.43750105263158
H -1.8467041194613816 -2.5203252864743284 7.43750105263158
H -3.0397154584728225 -1.6693585684349432 7.43750105263158
O 0.7416126216644479 5.432566092606488 6.729167719298246
H 1.6416126216644478 5.432566092606488 6.729167719298246
H 0.44860128265300686 6.283532810645873 6.729167719298246
O 3.9382130110911056 -4.502228263945013 6.020834385964913
H 4.8382130110911055 -4.502228263945013 6.020834385964913
H 3.6452016720796645 -3.651261545905628 6.020834385964913
O -6.246277751942018 1.4150988421809756 5.312501052631581
H -5.346277751942018 1.4150988421809756 5.312501052631581
H -6.539289090953459 2.266065560220361 5.312501052631581
O 6.316270295439667 4.094292924657863 4.604167719298247
H 7.216270295439667 4.094292924657863 4.604167719298247
H 6.023258956428226 4.945259642697248 4.604167719298247
O -1.6736134462366183 -7.036275613194618 3.8958343859649127
H -0.7736134462366183 -7.036275613194618 3.8958343859649127
H -1.9666247852480594 -6.185308895155233 3.8958343859649127
O -3.3442122511835572 7.252184594478373 3.187501052631581
H -2.4442122511835573 7.252184594478373 3.187501052631581
H -3.6372235901949983 8.103151312517758 3.187501052631581
O 7.924678694418129 -2.529700674069153 2.4791677192982466
H 8.824678694418129 -2.529700674069153 2.4791677192982466
H 7.631667355406688 -1.6787339560297678 2.4791677192982466
O -7.396937538263502 -2.912718611057841 1.7708343859649138
H -6.496937538263501 -2.912718611057841 1.7708343859649138
H -7.689948877274943 -2.0617518930184557 1.7708343859649138
O 3.862035973864614 7.897705639587578 1.062501052631581
H 4.762035973864614 7.897705639587578 1.062501052631581
H 3.569024634853173 8.748672357626964 1.062501052631581
O 2.8293054827210247 -7.844004150842636 0.3541677192982467
H 3.7293054827210246 -7.844004150842636 0.3541677192982467
H 2.5362941437095836 -6.993037432803251 0.3541677192982467
O -7.060306720912985 4.517610751419248 -0.3541656140350874
H -6.160306720912985 4.517610751419248 -0.3541656140350874
H -7.353318059924426 5.368577469458633 -0.3541656140350874
O 8.52423320418884 2.0701478372216284 -1.0624989473684199
H 9.424233204188841 2.0701478372216284 -1.0624989473684199
H 8.2312218651774 2.9211145552610134 -1.0624989473684199
O -4.493732058692576 -6.54160793266389 -1.7708322807017525
H -3.593732058692576 -6.54160793266389 -1.7708322807017525
H -4.786743397704017 -5.690641214624505 -1.7708322807017525
O -0.7572440564408421 8.322351302030564 -2.479165614035087
H 0.14275594355915788 8.322351302030564 -2.479165614035087
H -1.050255395452283 9.17331802006995 -2.479165614035087
O 6.312814870362184 -4.818708370705972 -3.18749894736842
H 7.212814870362184 -4.818708370705972 -3.18749894736842
H 6.0198035313507425 -3.9677416526665867 -3.18749894736842
O -7.260580089590223 -0.05279348115096383 -3.8958322807017516
H -6.360580089590223 -0.05279348115096383 -3.8958322807017516
H -7.553591428601664 0.7981732368884213 -3.8958322807017516
O 5.352218984541132 5.299318036458448 -4.604165614035088
H 6.252218984541132 5.299318036458448 -4.604165614035088
H 5.059207645529691 6.150284754497833 -4.604165614035088
O -0.018892728507639955 -6.3688803394821125 -5.31249894736842
H 0.88110727149236 -6.3688803394821125 -5.31249894736842
H -0.31190406751908095 -5.517913621442728 -5.31249894736842
O -3.556629844016838 4.866021897954128 -6.020832280701755
H -2.656629844016838 4.866021897954128 -6.020832280701755
H -3.849641183028279 5.716988615993513 -6.020832280701755
O 5.434327125534987 -0.43313706628889576 -6.729165614035088
H 6.334327125534988 -0.43313706628889576 -6.729165614035088
H 5.141315786523546 0.4178296517504894 -6.729165614035088
O -3.09026698355783 -2.0908856145003454 -7.43749894736842
H -2.19026698355783 -2.0908856145003454 -7.43749894736842
H -3.383278322569271 -1.2399188964609602 -7.43749894736842
O 0.8205123477148043 2.6281881232698208 -8.145832280701752
H 1.7205123477148043 2.6281881232698208 -8.145832280701752
H 0.5275010087033634 3.4791548413092057 -8.145832280701752
