181
Molecule with added oxygen and hydrogen atoms
Cr         0.00002       -0.00002       -0.00000
O          0.96377       -1.44771       -1.03326
H          0.65994       -1.85545       -1.87690
O          1.47082       -0.01293        1.38881
H          2.28732        0.53780        1.37071
O          1.00090        1.41314       -1.04571
H          0.90761        2.38754       -0.93556
O         -0.96397        1.44769        1.03306
H         -1.81988        1.86484        0.78067
O         -1.47061        0.01267       -1.38902
H         -2.28379       -0.54306       -1.37454
O         -1.00097       -1.41278        1.04614
H         -0.90570       -2.38729        0.93863
H         -1.66714       -1.24532        1.75216
H          1.49459       -0.57095        2.20020
H          1.81806       -1.86731       -0.77944
H         -1.49721        0.57504       -2.19732
H          1.66500        1.24626       -1.75383
H         -0.65882        1.85781        1.87507
O 1.7984336633475333 -1.5789473684898293e-06 4.124993157894737
H 2.6984336633475334 -1.5789473684898293e-06 4.124993157894737
H 1.5054223243360922 0.8509651390920167 4.124993157894737
O -2.194759668297922 -2.0105783270579285 3.3749931578947368
H -1.2947596682979219 -2.0105783270579285 3.3749931578947368
H -2.487771007309363 -1.1596116090185433 3.3749931578947368
O 0.3195420518285536 3.641051271389042 2.6249931578947363
H 1.2195420518285536 3.641051271389042 2.6249931578947363
H 0.02653071281711261 4.492017989428427 2.6249931578947363
O 2.488978482270986 -3.24643737762227 1.8749931578947368
H 3.388978482270986 -3.24643737762227 1.8749931578947368
H 2.195967143259545 -2.3954706595828847 1.8749931578947368
O -4.290504453483816 0.7589276882102732 1.1249931578947368
H -3.3905044534838162 0.7589276882102732 1.1249931578947368
H -4.583515792495257 1.6098944062496585 1.1249931578947368
O 3.783689024132417 2.4068736715935897 0.37499315789473714
H 4.683689024132417 2.4068736715935897 0.37499315789473714
H 3.4906776851209758 3.2578403896329746 0.37499315789473714
O -1.1641591459110983 -4.330603827545784 -0.3750068421052629
H -0.26415914591109824 -4.330603827545784 -0.3750068421052629
H -1.4571704849225393 -3.479637109506399 -0.3750068421052629
O -2.0082240426177242 3.8667055315230416 -1.1250068421052628
H -1.1082240426177243 3.8667055315230416 -1.1250068421052628
H -2.3012353816291653 4.717672249562427 -1.1250068421052628
O 3.842541443885089 -1.4032927045990342 -1.875006842105264
H 4.742541443885089 -1.4032927045990342 -1.875006842105264
H 3.549530104873648 -0.552325986559649 -1.875006842105264
O -3.378530422599723 -1.394608520578253 -2.6250068421052624
H -2.478530422599723 -1.394608520578253 -2.6250068421052624
H -3.671541761611164 -0.5436418025388678 -2.6250068421052624
O 1.261561826328717 2.6958895150290325 -3.3750068421052632
H 2.161561826328717 2.6958895150290325 -3.3750068421052632
H 0.9685504873172759 3.546856233068418 -3.3750068421052632
O 0.538239963926575 -1.7160054664173372 -4.125006842105263
H 1.438239963926575 -1.7160054664173372 -4.125006842105263
H 0.24522862491513403 -0.865038748377952 -4.125006842105263
O 2.3231663275387473 0.14573327711642967 6.138882046783625
H 3.223166327538747 0.14573327711642967 6.138882046783625
H 2.0301549885273062 0.9966999951558149 6.138882046783625
O -2.462569708752034 -2.2813102331084876 5.416659824561403
H -1.5625697087520343 -2.2813102331084876 5.416659824561403
H -2.7555810477634752 -1.4303435150691024 5.416659824561403
O 0.5798525012832876 4.6243161308798575 4.694437602339181
H 1.4798525012832875 4.6243161308798575 4.694437602339181
H 0.2868411622718466 5.475282848919242 4.694437602339181
O 3.317247289661144 -3.937375413239369 3.9722153801169586
H 4.217247289661144 -3.937375413239369 3.9722153801169586
H 3.024235950649703 -3.0864086951999834 3.9722153801169586
O -5.356310625618127 1.126232237526279 3.249993157894737
H -4.456310625618126 1.126232237526279 3.249993157894737
H -5.649321964629568 1.9771989555656642 3.249993157894737
O 5.239506469890229 3.359848880624082 2.527770935672514
H 6.13950646989023 3.359848880624082 2.527770935672514
H 4.946495130878788 4.210815598663467 2.527770935672514
O -1.43421567613394 -5.8843798022557605 1.805548713450292
H -0.5342156761339399 -5.8843798022557605 1.805548713450292
H -1.727227015145381 -5.033413084216376 1.805548713450292
O -2.7671887747199557 5.833466963817914 1.08332649122807
H -1.8671887747199558 5.833466963817914 1.08332649122807
H -3.0602001137313968 6.684433681857299 1.08332649122807
O 6.282963123926559 -2.0805741904667494 0.3611042690058479
H 7.18296312392656 -2.0805741904667494 0.3611042690058479
H 5.989951784915118 -1.2296074724273642 0.3611042690058479
O -5.812162781137726 -2.3305530796924243 -0.36111795321637424
H -4.9121627811377255 -2.3305530796924243 -0.36111795321637424
H -6.105174120149167 -1.4795863616530391 -0.36111795321637424
O 2.9032697996299746 5.950662514070324 -1.0833401754385963
H 3.8032697996299745 5.950662514070324 -1.0833401754385963
H 2.6102584606185335 6.801629232109709 -1.0833401754385963
O 2.0555909441678235 -5.812253394527324 -1.8055623976608184
H 2.9555909441678234 -5.812253394527324 -1.8055623976608184
H 1.7625796051563825 -4.961286676487939 -1.8055623976608184
O -4.994383637621143 3.14833752459408 -2.527784619883041
H -4.094383637621142 3.14833752459408 -2.527784619883041
H -5.287394976632584 3.999304242633465 -2.527784619883041
O 5.684673386590019 1.3544243986491429 -3.2500068421052646
H 6.584673386590019 1.3544243986491429 -3.2500068421052646
H 5.391662047578578 2.205391116688528 -3.2500068421052646
O -2.772260517818924 -4.063231763110672 -3.9722290643274856
H -1.872260517818924 -4.063231763110672 -3.9722290643274856
H -3.065271856830365 -3.2122650450712866 -3.9722290643274856
O -0.3909537999263932 4.604251760923361 -4.694451286549708
H 0.5090462000736069 4.604251760923361 -4.694451286549708
H -0.6839651389378342 5.455218478962746 -4.694451286549708
O 2.9341958157456514 -2.169771299011032 -5.41667350877193
H 3.8341958157456513 -2.169771299011032 -5.41667350877193
H 2.6411844767342103 -1.3188045809716467 -5.41667350877193
O -1.9477336223636463 0.05746343736024041 -6.138895730994152
H -1.0477336223636464 0.05746343736024041 -6.138895730994152
H -2.2407449613750874 0.9084301553996256 -6.138895730994152
O 2.715641452698092 0.25934490840882785 8.145826491228071
H 3.615641452698092 0.25934490840882785 8.145826491228071
H 2.422630113686651 1.1103116264482131 8.145826491228071
O -2.7467088563034867 -2.520327918053276 7.437493157894736
H -1.8467088563034868 -2.520327918053276 7.437493157894736
H -3.0397201953149278 -1.6693612000138909 7.437493157894736
O 0.7416078848223429 5.432563461027541 6.729159824561402
H 1.641607884822343 5.432563461027541 6.729159824561402
H 0.44859654581090186 6.283530179066926 6.729159824561402
O 3.9382082742490008 -4.502230895523961 6.020826491228069
H 4.838208274249001 -4.502230895523961 6.020826491228069
H 3.6451969352375597 -3.6512641774845758 6.020826491228069
O -6.246282488784123 1.415096210602028 5.312493157894737
H -5.346282488784123 1.415096210602028 5.312493157894737
H -6.539293827795564 2.2660629286414133 5.312493157894737
O 6.316265558597562 4.094290293078917 4.604159824561403
H 7.216265558597562 4.094290293078917 4.604159824561403
H 6.0232542195861205 4.945257011118302 4.604159824561403
O -1.6736181830787236 -7.036278244773565 3.895826491228069
H -0.7736181830787235 -7.036278244773565 3.895826491228069
H -1.9666295220901646 -6.18531152673418 3.895826491228069
O -3.3442169880256625 7.252181962899425 3.187493157894737
H -2.4442169880256626 7.252181962899425 3.187493157894737
H -3.6372283270371035 8.10314868093881 3.187493157894737
O 7.924673957576024 -2.5297033056481006 2.479159824561403
H 8.824673957576024 -2.5297033056481006 2.479159824561403
H 7.631662618564583 -1.6787365876087155 2.479159824561403
O -7.396942275105607 -2.9127212426367888 1.77082649122807
H -6.4969422751056065 -2.9127212426367888 1.77082649122807
H -7.689953614117048 -2.0617545245974034 1.77082649122807
O 3.862031237022509 7.89770300800863 1.0624931578947372
H 4.7620312370225095 7.89770300800863 1.0624931578947372
H 3.569019898011068 8.748669726048016 1.0624931578947372
O 2.8293007458789194 -7.844006782421584 0.35415982456140305
H 3.7293007458789194 -7.844006782421584 0.35415982456140305
H 2.5362894068674784 -6.993040064382199 0.35415982456140305
O -7.06031145775509 4.5176081198403 -0.35417350877193104
H -6.16031145775509 4.5176081198403 -0.35417350877193104
H -7.353322796766531 5.368574837879685 -0.35417350877193104
O 8.524228467346736 2.070145205642681 -1.0625068421052637
H 9.424228467346737 2.070145205642681 -1.0625068421052637
H 8.231217128335295 2.9211119236820657 -1.0625068421052637
O -4.493736795534681 -6.541610564242838 -1.7708401754385963
H -3.593736795534681 -6.541610564242838 -1.7708401754385963
H -4.786748134546122 -5.690643846203453 -1.7708401754385963
O -0.7572487932829473 8.322348670451616 -2.4791735087719307
H 0.14275120671705277 8.322348670451616 -2.4791735087719307
H -1.0502601322943883 9.173315388491002 -2.4791735087719307
O 6.312810133520078 -4.818711002284919 -3.1875068421052637
H 7.212810133520079 -4.818711002284919 -3.1875068421052637
H 6.019798794508637 -3.9677442842455344 -3.1875068421052637
O -7.2605848264323285 -0.052796112729911304 -3.8958401754385954
H -6.360584826432328 -0.052796112729911304 -3.8958401754385954
H -7.5535961654437696 0.7981706053094739 -3.8958401754385954
O 5.352214247699027 5.299315404879501 -4.6041735087719315
H 6.252214247699027 5.299315404879501 -4.6041735087719315
H 5.059202908687586 6.1502821229188855 -4.6041735087719315
O -0.01889746534974507 -6.36888297106106 -5.312506842105264
H 0.881102534650255 -6.36888297106106 -5.312506842105264
H -0.31190880436118607 -5.517916253021675 -5.312506842105264
O -3.556634580858943 4.86601926637518 -6.0208401754385985
H -2.656634580858943 4.86601926637518 -6.0208401754385985
H -3.849645919870384 5.716985984414565 -6.0208401754385985
O 5.434322388692882 -0.43313969786784323 -6.7291735087719315
H 6.3343223886928826 -0.43313969786784323 -6.7291735087719315
H 5.141311049681441 0.41782702017154194 -6.7291735087719315
O -3.090271720399935 -2.090888246079293 -7.437506842105264
H -2.190271720399935 -2.090888246079293 -7.437506842105264
H -3.383283059411376 -1.2399215280399078 -7.437506842105264
O 0.8205076108726992 2.628185491690873 -8.145840175438595
H 1.720507610872699 2.628185491690873 -8.145840175438595
H 0.5274962718612581 3.479152209730258 -8.145840175438595
