109
Molecule with added oxygen and hydrogen atoms
Mn        -0.00032        0.00005        0.00026
O          1.55374       -0.46041       -1.49139
H          2.08031        0.18464       -2.00318
O         -1.52832       -0.01504       -1.58597
H         -2.48572        0.14668       -1.47459
O         -0.32168       -2.15382        0.32979
H          0.13844       -2.71924        0.98079
O         -1.55448        0.46129        1.49123
H         -1.85069        1.35038        1.76875
O          1.52864        0.01428        1.58567
H          2.48650       -0.14393        1.47216
O          0.32263        2.15365       -0.32994
H         -0.13372        2.71836       -0.98415
H          0.94985        2.72949        0.14988
H         -1.38038       -0.18419       -2.53710
H          1.84989       -1.34926       -1.76969
H          1.38170        0.17861        2.53810
H         -0.95194       -2.72905       -0.14671
H         -2.08049       -0.18328        2.00411
O 1.7986452422949017 -4.1578947368442186e-05 4.124895789473684
H 2.698645242294902 -4.1578947368442186e-05 4.124895789473684
H 1.5056339032834607 0.8509251390920167 4.124895789473684
O -2.1945480893505533 -2.0106183270579283 3.374895789473684
H -1.2945480893505534 -2.0106183270579283 3.374895789473684
H -2.4875594283619944 -1.1596516090185431 3.374895789473684
O 0.319753630775922 3.641011271389042 2.6248957894736837
H 1.219753630775922 3.641011271389042 2.6248957894736837
H 0.026742291764481008 4.4919779894284275 2.6248957894736837
O 2.4891900612183546 -3.24647737762227 1.8748957894736842
H 3.3891900612183545 -3.24647737762227 1.8748957894736842
H 2.1961787222069136 -2.395510659582885 1.8748957894736842
O -4.290292874536448 0.7588876882102733 1.1248957894736842
H -3.390292874536448 0.7588876882102733 1.1248957894736842
H -4.583304213547889 1.6098544062496585 1.1248957894736842
O 3.7839006030797853 2.40683367159359 0.37489578947368446
H 4.683900603079786 2.40683367159359 0.37489578947368446
H 3.490889264068344 3.2578003896329752 0.37489578947368446
O -1.1639475669637298 -4.330643827545784 -0.3751042105263156
H -0.2639475669637298 -4.330643827545784 -0.3751042105263156
H -1.4569589059751709 -3.479677109506399 -0.3751042105263156
O -2.008012463670356 3.866665531523042 -1.1251042105263154
H -1.1080124636703559 3.866665531523042 -1.1251042105263154
H -2.301023802681797 4.717632249562427 -1.1251042105263154
O 3.8427530228324573 -1.4033327045990343 -1.8751042105263165
H 4.742753022832457 -1.4033327045990343 -1.8751042105263165
H 3.5497416838210163 -0.5523659865596491 -1.8751042105263165
O -3.3783188436523544 -1.394648520578253 -2.625104210526315
H -2.4783188436523544 -1.394648520578253 -2.625104210526315
H -3.6713301826637954 -0.5436818025388679 -2.625104210526315
O 1.2617734052760854 2.6958495150290327 -3.375104210526316
H 2.1617734052760853 2.6958495150290327 -3.375104210526316
H 0.9687620662646443 3.5468162330684176 -3.375104210526316
O 0.5384515428739434 -1.7160454664173372 -4.125104210526316
H 1.4384515428739433 -1.7160454664173372 -4.125104210526316
H 0.24544020386250237 -0.8650787483779521 -4.125104210526316
O 2.3233779064861158 0.1456932771164297 6.138784678362572
H 3.2233779064861157 0.1456932771164297 6.138784678362572
H 2.0303665674746747 0.9966599951558148 6.138784678362572
O -2.4623581298046657 -2.2813502331084874 5.41656245614035
H -1.5623581298046658 -2.2813502331084874 5.41656245614035
H -2.755369468816107 -1.4303835150691022 5.41656245614035
O 0.5800640802306559 4.624276130879858 4.694340233918128
H 1.480064080230656 4.624276130879858 4.694340233918128
H 0.2870527412192149 5.475242848919243 4.694340233918128
O 3.3174588686085125 -3.9374154132393686 3.972118011695906
H 4.217458868608513 -3.9374154132393686 3.972118011695906
H 3.0244475295970714 -3.0864486951999837 3.972118011695906
O -5.356099046670758 1.126192237526279 3.2498957894736846
H -4.456099046670758 1.126192237526279 3.2498957894736846
H -5.649110385682199 1.9771589555656641 3.2498957894736846
O 5.239718048837598 3.3598088806240822 2.5276735672514614
H 6.139718048837598 3.3598088806240822 2.5276735672514614
H 4.946706709826157 4.210775598663467 2.5276735672514614
O -1.4340040971865715 -5.88441980225576 1.8054513450292393
H -0.5340040971865715 -5.88441980225576 1.8054513450292393
H -1.7270154361980126 -5.033453084216375 1.8054513450292393
O -2.7669771957725873 5.833426963817915 1.0832291228070172
H -1.8669771957725874 5.833426963817915 1.0832291228070172
H -3.0599885347840283 6.6843936818572995 1.0832291228070172
O 6.283174702873928 -2.0806141904667492 0.36100690058479523
H 7.183174702873928 -2.0806141904667492 0.36100690058479523
H 5.990163363862487 -1.229647472427364 0.36100690058479523
O -5.811951202190357 -2.330593079692424 -0.3612153216374269
H -4.911951202190357 -2.330593079692424 -0.3612153216374269
H -6.1049625412017985 -1.479626361653039 -0.3612153216374269
O 2.903481378577343 5.950622514070325 -1.083437543859649
H 3.803481378577343 5.950622514070325 -1.083437543859649
H 2.610470039565902 6.80158923210971 -1.083437543859649
O 2.055802523115192 -5.812293394527323 -1.8056597660818712
H 2.955802523115192 -5.812293394527323 -1.8056597660818712
H 1.762791184103751 -4.961326676487938 -1.8056597660818712
O -4.994172058673774 3.14829752459408 -2.5278819883040935
H -4.094172058673774 3.14829752459408 -2.5278819883040935
H -5.287183397685215 3.9992642426334655 -2.5278819883040935
O 5.684884965537387 1.3543843986491428 -3.250104210526317
H 6.584884965537388 1.3543843986491428 -3.250104210526317
H 5.391873626525946 2.205351116688528 -3.250104210526317
O -2.7720489388715555 -4.063271763110671 -3.972326432748538
H -1.8720489388715555 -4.063271763110671 -3.972326432748538
H -3.0650602778829965 -3.212305045071286 -3.972326432748538
O -0.3907422209790248 4.604211760923362 -4.694548654970761
H 0.5092577790209752 4.604211760923362 -4.694548654970761
H -0.6837535599904658 5.455178478962747 -4.694548654970761
O 2.93440739469302 -2.1698112990110316 -5.416770877192983
H 3.8344073946930197 -2.1698112990110316 -5.416770877192983
H 2.6413960556815788 -1.3188445809716465 -5.416770877192983
O -1.9475220434162779 0.057423437360240456 -6.138993099415205
H -1.047522043416278 0.057423437360240456 -6.138993099415205
H -2.240533382427719 0.9083901553996256 -6.138993099415205
