181
Molecule with added oxygen and hydrogen atoms
Mn        -0.00009       -0.00016       -0.00019
O          0.42526        2.11201        0.36516
H         -0.02520        2.68923        0.99259
O          1.58763       -0.06058       -1.50033
H          2.51508       -0.27490       -1.34645
O          1.44245       -0.55734        1.54376
H          1.67101       -1.45192        1.82173
O         -0.42676       -2.11176       -0.36607
H         -1.10079       -2.64597        0.06990
O         -1.58656        0.05886        1.50152
H         -2.51447        0.27220        1.34917
O         -1.44172        0.55908       -1.54392
H         -1.66917        1.45429       -1.82071
H         -1.97168       -0.04155       -2.08070
H          1.49649        0.12144       -2.44284
H          1.09991        2.64619       -0.06988
H         -1.49373       -0.12309        2.44388
H          1.96990        0.04469        2.08161
H          0.02244       -2.68879       -0.99457
O 1.7984368212422701 0.00010157894736843207 4.1251926315789476
H 2.6984368212422702 0.00010157894736843207 4.1251926315789476
H 1.505425482230829 0.8510682969867536 4.1251926315789476
O -2.194756510403185 -2.0104751691631915 3.3751926315789476
H -1.294756510403185 -2.0104751691631915 3.3751926315789476
H -2.487767849414626 -1.1595084511238063 3.3751926315789476
O 0.31954520972329037 3.641154429283779 2.625192631578947
H 1.2195452097232904 3.641154429283779 2.625192631578947
H 0.026533870711849372 4.492121147323164 2.625192631578947
O 2.488981640165723 -3.246334219727533 1.8751926315789473
H 3.388981640165723 -3.246334219727533 1.8751926315789473
H 2.195970301154282 -2.395367501688148 1.8751926315789473
O -4.290501295589079 0.7590308461050101 1.1251926315789473
H -3.3905012955890794 0.7590308461050101 1.1251926315789473
H -4.58351263460052 1.6099975641443953 1.1251926315789473
O 3.7836921820271536 2.4069768294883267 0.37519263157894767
H 4.683692182027154 2.4069768294883267 0.37519263157894767
H 3.4906808430157126 3.257943547527712 0.37519263157894767
O -1.1641559880163614 -4.330500669651047 -0.3748073684210524
H -0.2641559880163614 -4.330500669651047 -0.3748073684210524
H -1.4571673270278025 -3.4795339516116623 -0.3748073684210524
O -2.0082208847229874 3.8668086894177787 -1.1248073684210522
H -1.1082208847229875 3.8668086894177787 -1.1248073684210522
H -2.3012322237344285 4.717775407457164 -1.1248073684210522
O 3.8425446017798257 -1.4031895467042974 -1.8748073684210533
H 4.742544601779826 -1.4031895467042974 -1.8748073684210533
H 3.5495332627683847 -0.5522228286649122 -1.8748073684210533
O -3.378527264704986 -1.3945053626835162 -2.6248073684210516
H -2.478527264704986 -1.3945053626835162 -2.6248073684210516
H -3.671538603716427 -0.543538644644131 -2.6248073684210516
O 1.2615649842234538 2.6959926729237695 -3.3748073684210524
H 2.1615649842234537 2.6959926729237695 -3.3748073684210524
H 0.9685536452120127 3.5469593909631545 -3.3748073684210524
O 0.5382431218213118 -1.7159023085226004 -4.1248073684210524
H 1.4382431218213119 -1.7159023085226004 -4.1248073684210524
H 0.24523178280987085 -0.8649355904832152 -4.1248073684210524
O 2.323169485433484 0.14583643501116655 6.139081520467836
H 3.223169485433484 0.14583643501116655 6.139081520467836
H 2.030158146422043 0.9968031530505517 6.139081520467836
O -2.4625665508572974 -2.2812070752137505 5.4168592982456145
H -1.5625665508572975 -2.2812070752137505 5.4168592982456145
H -2.7555778898687384 -1.4302403571743654 5.4168592982456145
O 0.5798556591780243 4.624419288774595 4.694637076023392
H 1.4798556591780243 4.624419288774595 4.694637076023392
H 0.2868443201665833 5.47538600681398 4.694637076023392
O 3.317250447555881 -3.9372722553446318 3.97241485380117
H 4.217250447555881 -3.9372722553446318 3.97241485380117
H 3.02423910854444 -3.086305537305247 3.97241485380117
O -5.35630746772339 1.1263353954210158 3.2501926315789484
H -4.45630746772339 1.1263353954210158 3.2501926315789484
H -5.649318806734831 1.977302113460401 3.2501926315789484
O 5.239509627784966 3.359952038518819 2.5279704093567252
H 6.139509627784967 3.359952038518819 2.5279704093567252
H 4.946498288773525 4.210918756558204 2.5279704093567252
O -1.4342125182392031 -5.884276644361023 1.805748187134503
H -0.5342125182392031 -5.884276644361023 1.805748187134503
H -1.7272238572506442 -5.033309926321638 1.805748187134503
O -2.767185616825219 5.833570121712651 1.0835259649122808
H -1.867185616825219 5.833570121712651 1.0835259649122808
H -3.06019695583666 6.684536839752036 1.0835259649122808
O 6.282966281821296 -2.0804710325720124 0.36130374269005894
H 7.1829662818212965 -2.0804710325720124 0.36130374269005894
H 5.989954942809855 -1.2295043145326272 0.36130374269005894
O -5.812159623242989 -2.3304499217976873 -0.3609184795321632
H -4.912159623242989 -2.3304499217976873 -0.3609184795321632
H -6.10517096225443 -1.4794832037583021 -0.3609184795321632
O 2.9032729575247114 5.950765671965062 -1.0831407017543855
H 3.8032729575247113 5.950765671965062 -1.0831407017543855
H 2.6102616185132703 6.801732390004447 -1.0831407017543855
O 2.0555941020625603 -5.812150236632586 -1.8053629239766076
H 2.9555941020625602 -5.812150236632586 -1.8053629239766076
H 1.7625827630511193 -4.961183518593201 -1.8053629239766076
O -4.994380479726406 3.148440682488817 -2.5275851461988297
H -4.094380479726405 3.148440682488817 -2.5275851461988297
H -5.287391818737847 3.9994074005282023 -2.5275851461988297
O 5.684676544484756 1.3545275565438797 -3.2498073684210533
H 6.584676544484756 1.3545275565438797 -3.2498073684210533
H 5.3916652054733145 2.205494274583265 -3.2498073684210533
O -2.772257359924187 -4.063128605215934 -3.9720295906432743
H -1.8722573599241872 -4.063128605215934 -3.9720295906432743
H -3.065268698935628 -3.212161887176549 -3.9720295906432743
O -0.3909506420316564 4.604354918818099 -4.694251812865497
H 0.5090493579683436 4.604354918818099 -4.694251812865497
H -0.6839619810430975 5.455321636857484 -4.694251812865497
O 2.934198973640388 -2.169668141116295 -5.4164740350877185
H 3.834198973640388 -2.169668141116295 -5.4164740350877185
H 2.641187634628947 -1.3187014230769096 -5.4164740350877185
O -1.9477304644689095 0.0575665952549773 -6.138696257309941
H -1.0477304644689096 0.0575665952549773 -6.138696257309941
H -2.2407418034803506 0.9085333132943625 -6.138696257309941
O 2.7156446105928285 0.25944806630356504 8.146025964912281
H 3.6156446105928284 0.25944806630356504 8.146025964912281
H 2.4226332715813874 1.1104147843429502 8.146025964912281
O -2.74670569840875 -2.5202247601585386 7.4376926315789476
H -1.84670569840875 -2.5202247601585386 7.4376926315789476
H -3.039717037420191 -1.6692580421191534 7.4376926315789476
O 0.7416110427170794 5.432666618922278 6.729359298245614
H 1.6416110427170794 5.432666618922278 6.729359298245614
H 0.44859970370563845 6.283633336961663 6.729359298245614
O 3.938211432143737 -4.502127737629223 6.021025964912281
H 4.838211432143737 -4.502127737629223 6.021025964912281
H 3.645200093132296 -3.6511610195898383 6.021025964912281
O -6.2462793308893865 1.4151993684967652 5.312692631578948
H -5.346279330889386 1.4151993684967652 5.312692631578948
H -6.5392906699008275 2.2661660865361504 5.312692631578948
O 6.3162687164922975 4.094393450973653 4.6043592982456145
H 7.216268716492298 4.094393450973653 4.6043592982456145
H 6.023257377480856 4.945360169013038 4.6043592982456145
O -1.673615025183987 -7.036175086878828 3.89602596491228
H -0.773615025183987 -7.036175086878828 3.89602596491228
H -1.966626364195428 -6.185208368839443 3.89602596491228
O -3.3442138301309257 7.252285120794163 3.1876926315789484
H -2.4442138301309257 7.252285120794163 3.1876926315789484
H -3.6372251691423667 8.103251838833549 3.1876926315789484
O 7.924677115470761 -2.529600147753363 2.479359298245614
H 8.824677115470761 -2.529600147753363 2.479359298245614
H 7.63166577645932 -1.678633429713978 2.479359298245614
O -7.39693911721087 -2.9126180847420513 1.7710259649122813
H -6.49693911721087 -2.9126180847420513 1.7710259649122813
H -7.689950456222311 -2.061651366702666 1.7710259649122813
O 3.8620343949172455 7.897806165903368 1.0626926315789484
H 4.7620343949172455 7.897806165903368 1.0626926315789484
H 3.5690230559058045 8.748772883942753 1.0626926315789484
O 2.8293039037736563 -7.843903624526846 0.3543592982456142
H 3.729303903773656 -7.843903624526846 0.3543592982456142
H 2.536292564762215 -6.992936906487461 0.3543592982456142
O -7.060308299860354 4.517711277735038 -0.3539740350877199
H -6.160308299860354 4.517711277735038 -0.3539740350877199
H -7.353319638871795 5.368677995774423 -0.3539740350877199
O 8.524231625241473 2.0702483635374183 -1.0623073684210524
H 9.424231625241474 2.0702483635374183 -1.0623073684210524
H 8.231220286230032 2.921215081576803 -1.0623073684210524
O -4.493733637639945 -6.5415074063481 -1.770640701754385
H -3.593733637639945 -6.5415074063481 -1.770640701754385
H -4.786744976651386 -5.690540688308715 -1.770640701754385
O -0.7572456353882107 8.322451828346352 -2.4789740350877194
H 0.14275436461178936 8.322451828346352 -2.4789740350877194
H -1.0502569743996517 9.173418546385738 -2.4789740350877194
O 6.312813291414814 -4.818607844390182 -3.1873073684210524
H 7.212813291414815 -4.818607844390182 -3.1873073684210524
H 6.019801952403373 -3.967641126350797 -3.1873073684210524
O -7.260581668537592 -0.05269295483517411 -3.895640701754384
H -6.360581668537591 -0.05269295483517411 -3.895640701754384
H -7.553593007549033 0.7982737632042111 -3.895640701754384
O 5.352217405593763 5.299418562774238 -4.60397403508772
H 6.252217405593763 5.299418562774238 -4.60397403508772
H 5.0592060665823215 6.150385280813623 -4.60397403508772
O -0.018894307455008474 -6.368779813166323 -5.3123073684210524
H 0.8811056925449916 -6.368779813166323 -5.3123073684210524
H -0.31190564646644947 -5.517813095126938 -5.3123073684210524
O -3.556631422964206 4.866122424269918 -6.020640701754387
H -2.6566314229642063 4.866122424269918 -6.020640701754387
H -3.8496427619756473 5.717089142309303 -6.020640701754387
O 5.434325546587619 -0.43303653997310604 -6.72897403508772
H 6.334325546587619 -0.43303653997310604 -6.72897403508772
H 5.141314207576178 0.41793017806627913 -6.72897403508772
O -3.0902685625051984 -2.0907850881845556 -7.4373073684210524
H -2.1902685625051985 -2.0907850881845556 -7.4373073684210524
H -3.3832799015166395 -1.2398183701451704 -7.4373073684210524
O 0.8205107687674358 2.6282886495856106 -8.145640701754385
H 1.720510768767436 2.6282886495856106 -8.145640701754385
H 0.5274994297559947 3.4792553676249955 -8.145640701754385
