109
Molecule with added oxygen and hydrogen atoms
Mn        -0.00001       -0.00005        0.00001
O          0.00036        0.00795       -1.95561
H         -0.79481        0.01017       -2.51951
O          0.00012       -1.96172       -0.00800
H         -0.00065       -2.53313        0.78046
O          2.14350        0.00036        0.00024
H          2.72974        0.77433        0.00339
O         -0.00021       -0.00818        1.95563
H         -0.79546       -0.01066        2.51941
O         -0.00022        1.96165        0.00807
H          0.00064        2.53308       -0.78036
O         -2.14351        0.00005       -0.00035
H         -2.73007       -0.77367       -0.00377
H         -2.72985        0.77394        0.00274
H          0.00092       -2.52672       -0.80106
H          0.79570        0.01017       -2.51926
H         -0.00127        2.52661        0.80115
H          2.73016       -0.77329       -0.00264
H          0.79504       -0.01034        2.51940
O 1.7984431370317437 2.8947368421032735e-05 4.124996842105263
H 2.698443137031744 2.8947368421032735e-05 4.124996842105263
H 1.5054317980203027 0.8509956654078062 4.124996842105263
O -2.1947501946137113 -2.010547800742139 3.374996842105263
H -1.2947501946137114 -2.010547800742139 3.374996842105263
H -2.4877615336251524 -1.159581082702754 3.374996842105263
O 0.3195515255127641 3.6410817977048313 2.6249968421052627
H 1.219551525512764 3.6410817977048313 2.6249968421052627
H 0.026540186501323115 4.492048515744217 2.6249968421052627
O 2.4889879559551966 -3.2464068513064808 1.8749968421052632
H 3.3889879559551965 -3.2464068513064808 1.8749968421052632
H 2.1959766169437556 -2.395440133267096 1.8749968421052632
O -4.290494979799606 0.7589582145260628 1.1249968421052632
H -3.390494979799606 0.7589582145260628 1.1249968421052632
H -4.583506318811047 1.6099249325654479 1.1249968421052632
O 3.7836984978166273 2.406904197909379 0.37499684210526346
H 4.683698497816628 2.406904197909379 0.37499684210526346
H 3.490687158805186 3.2578709159487644 0.37499684210526346
O -1.1641496722268878 -4.330573301229994 -0.3750031578947366
H -0.2641496722268878 -4.330573301229994 -0.3750031578947366
H -1.4571610112383289 -3.479606583190609 -0.3750031578947366
O -2.008214568933514 3.866736057838831 -1.1250031578947364
H -1.1082145689335139 3.866736057838831 -1.1250031578947364
H -2.301225907944955 4.717702775878216 -1.1250031578947364
O 3.8425509175692993 -1.4032621782832448 -1.8750031578947375
H 4.742550917569299 -1.4032621782832448 -1.8750031578947375
H 3.5495395785578583 -0.5522954602438597 -1.8750031578947375
O -3.3785209489155124 -1.3945779942624636 -2.625003157894736
H -2.4785209489155124 -1.3945779942624636 -2.625003157894736
H -3.6715322879269534 -0.5436112762230785 -2.625003157894736
O 1.2615713000129274 2.695920041344822 -3.375003157894737
H 2.1615713000129273 2.695920041344822 -3.375003157894737
H 0.9685599610014863 3.546886759384207 -3.375003157894737
O 0.5382494376107856 -1.7159749401015478 -4.125003157894737
H 1.4382494376107857 -1.7159749401015478 -4.125003157894737
H 0.2452380985993446 -0.8650082220621627 -4.125003157894737
O 2.3231758012229577 0.14576380343221915 6.138885730994151
H 3.2231758012229577 0.14576380343221915 6.138885730994151
H 2.0301644622115167 0.9967305214716043 6.138885730994151
O -2.4625602350678237 -2.281279706792698 5.416663508771929
H -1.5625602350678238 -2.281279706792698 5.416663508771929
H -2.755571574079265 -1.430312988753313 5.416663508771929
O 0.5798619749674979 4.624346657195647 4.694441286549707
H 1.479861974967498 4.624346657195647 4.694441286549707
H 0.2868506359560569 5.475313375235032 4.694441286549707
O 3.3172567633453545 -3.9373448869235794 3.972219064327485
H 4.217256763345355 -3.9373448869235794 3.972219064327485
H 3.0242454243339134 -3.0863781688841945 3.972219064327485
O -5.356301151933916 1.1262627638420684 3.2499968421052636
H -4.456301151933916 1.1262627638420684 3.2499968421052636
H -5.649312490945357 1.9772294818814535 3.2499968421052636
O 5.23951594357444 3.3598794069398714 2.5277746198830404
H 6.13951594357444 3.3598794069398714 2.5277746198830404
H 4.946504604562999 4.210846124979256 2.5277746198830404
O -1.4342062024497295 -5.884349275939971 1.805552397660818
H -0.5342062024497295 -5.884349275939971 1.805552397660818
H -1.7272175414611706 -5.033382557900586 1.805552397660818
O -2.7671793010357453 5.833497490133704 1.083330175438596
H -1.8671793010357454 5.833497490133704 1.083330175438596
H -3.0601906400471863 6.684464208173089 1.083330175438596
O 6.28297259761077 -2.08054366415096 0.3611079532163741
H 7.18297259761077 -2.08054366415096 0.3611079532163741
H 5.989961258599329 -1.2295769461115749 0.3611079532163741
O -5.812153307453515 -2.330522553376635 -0.36111426900584803
H -4.912153307453515 -2.330522553376635 -0.36111426900584803
H -6.1051646464649565 -1.4795558353372498 -0.36111426900584803
O 2.903279273314185 5.950693040386114 -1.0833364912280703
H 3.803279273314185 5.950693040386114 -1.0833364912280703
H 2.610267934302744 6.801659758425499 -1.0833364912280703
O 2.055600417852034 -5.812222868211534 -1.8055587134502924
H 2.955600417852034 -5.812222868211534 -1.8055587134502924
H 1.762589078840593 -4.961256150172149 -1.8055587134502924
O -4.994374163936932 3.1483680509098693 -2.5277809356725145
H -4.094374163936932 3.1483680509098693 -2.5277809356725145
H -5.287385502948373 3.9993347689492547 -2.5277809356725145
O 5.684682860274229 1.3544549249649322 -3.250003157894738
H 6.5846828602742296 1.3544549249649322 -3.250003157894738
H 5.391671521262788 2.2054216430043176 -3.250003157894738
O -2.7722510441347135 -4.063201236794882 -3.972225380116959
H -1.8722510441347135 -4.063201236794882 -3.972225380116959
H -3.0652623831461545 -3.212234518755497 -3.972225380116959
O -0.3909443262421828 4.604282287239151 -4.694447602339182
H 0.5090556737578172 4.604282287239151 -4.694447602339182
H -0.6839556652536238 5.455249005278536 -4.694447602339182
O 2.934205289429862 -2.1697407726952425 -5.416669824561404
H 3.8342052894298617 -2.1697407726952425 -5.416669824561404
H 2.6411939504184208 -1.3187740546558573 -5.416669824561404
O -1.9477241486794359 0.057493963676029894 -6.138892046783626
H -1.047724148679436 0.057493963676029894 -6.138892046783626
H -2.240735487690877 0.908460681715415 -6.138892046783626
