181
Molecule with added oxygen and hydrogen atoms
Ti         0.00003        0.00025        0.00002
O          0.69930        1.70495        1.23785
H          0.30205        2.59752        1.27551
O          1.82608        0.24614       -1.23837
H          2.17486       -0.37566       -1.90679
O          1.12685       -1.45718        1.23853
H          0.76324       -2.06902        1.90825
O         -0.69917       -1.70528       -1.23694
H         -1.41178       -1.69717       -1.90567
O         -1.82634       -0.24626        1.23785
H         -2.17592        0.37515        1.90621
O         -1.12679        1.45712       -1.23895
H         -0.76309        2.07023       -1.90745
H         -2.09840        1.55979       -1.27555
H          2.40063        1.03632       -1.27584
H          1.41328        1.69660        1.90511
H         -2.40089       -1.03650        1.27418
H          2.09842       -1.56044        1.27457
H         -0.30252       -2.59819       -1.27269
O 1.7984284001896385 -8.578947368425834e-05 4.124991052631579
H 2.6984284001896386 -8.578947368425834e-05 4.124991052631579
H 1.5054170611781974 0.850880928565701 4.124991052631579
O -2.1947649314558166 -2.010662537584244 3.3749910526315787
H -1.2947649314558167 -2.010662537584244 3.3749910526315787
H -2.4877762704672577 -1.159695819544859 3.3749910526315787
O 0.3195367886706588 3.6409670608627263 2.6249910526315783
H 1.2195367886706587 3.6409670608627263 2.6249910526315783
H 0.026525449659217826 4.491933778902111 2.6249910526315783
O 2.4889732191130913 -3.246521588148586 1.874991052631579
H 3.3889732191130912 -3.246521588148586 1.874991052631579
H 2.1959618801016503 -2.3955548701092004 1.874991052631579
O -4.2905097166417105 0.7588434776839575 1.124991052631579
H -3.3905097166417106 0.7588434776839575 1.124991052631579
H -4.583521055653152 1.6098101957233428 1.124991052631579
O 3.783683760974522 2.406789461067274 0.3749910526315792
H 4.683683760974522 2.406789461067274 0.3749910526315792
H 3.490672421963081 3.257756179106659 0.3749910526315792
O -1.164164409068993 -4.3306880380721 -0.37500894736842083
H -0.2641644090689931 -4.3306880380721 -0.37500894736842083
H -1.4571757480804342 -3.4797213200327146 -0.37500894736842083
O -2.008229305775619 3.866621320996726 -1.1250089473684206
H -1.1082293057756192 3.866621320996726 -1.1250089473684206
H -2.30124064478706 4.717588039036111 -1.1250089473684206
O 3.842536180727194 -1.4033769151253501 -1.8750089473684217
H 4.742536180727194 -1.4033769151253501 -1.8750089473684217
H 3.549524841715753 -0.552410197085965 -1.8750089473684217
O -3.3785356857576176 -1.394692731104569 -2.6250089473684204
H -2.4785356857576177 -1.394692731104569 -2.6250089473684204
H -3.6715470247690587 -0.5437260130651838 -2.6250089473684204
O 1.261556563170822 2.695805304502717 -3.3750089473684213
H 2.161556563170822 2.695805304502717 -3.3750089473684213
H 0.968545224159381 3.546772022542102 -3.3750089473684213
O 0.5382347007686802 -1.716089676943653 -4.125008947368421
H 1.4382347007686802 -1.716089676943653 -4.125008947368421
H 0.2452233617572392 -0.8651229589042679 -4.125008947368421
O 2.3231610643808525 0.14564906659011392 6.138879941520467
H 3.2231610643808524 0.14564906659011392 6.138879941520467
H 2.0301497253694114 0.9966157846294991 6.138879941520467
O -2.462574971909929 -2.2813944436348033 5.416657719298246
H -1.5625749719099291 -2.2813944436348033 5.416657719298246
H -2.75558631092137 -1.430427725595418 5.416657719298246
O 0.5798472381253926 4.624231920353542 4.694435497076023
H 1.4798472381253926 4.624231920353542 4.694435497076023
H 0.28683589911395163 5.475198638392927 4.694435497076023
O 3.317242026503249 -3.9374596237656845 3.972213274853801
H 4.217242026503249 -3.9374596237656845 3.972213274853801
H 3.024230687491808 -3.086492905726299 3.972213274853801
O -5.356315888776022 1.1261480269999633 3.2499910526315796
H -4.456315888776022 1.1261480269999633 3.2499910526315796
H -5.649327227787463 1.9771147450393485 3.2499910526315796
O 5.239501206732334 3.3597646700977664 2.5277688304093564
H 6.1395012067323345 3.3597646700977664 2.5277688304093564
H 4.946489867720893 4.210731388137152 2.5277688304093564
O -1.4342209392918348 -5.884464012782076 1.8055466081871345
H -0.5342209392918348 -5.884464012782076 1.8055466081871345
H -1.7272322783032759 -5.033497294742691 1.8055466081871345
O -2.7671940378778506 5.833382753291598 1.0833243859649124
H -1.8671940378778507 5.833382753291598 1.0833243859649124
H -3.0602053768892916 6.684349471330983 1.0833243859649124
O 6.282957860768664 -2.080658400993065 0.36110216374269033
H 7.182957860768664 -2.080658400993065 0.36110216374269033
H 5.989946521757223 -1.22969168295368 0.36110216374269033
O -5.812168044295621 -2.33063729021874 -0.3611200584795318
H -4.912168044295621 -2.33063729021874 -0.3611200584795318
H -6.105179383307062 -1.4796705721793548 -0.3611200584795318
O 2.9032645364720797 5.950578303544009 -1.0833422807017539
H 3.8032645364720796 5.950578303544009 -1.0833422807017539
H 2.6102531974606387 6.801545021583394 -1.0833422807017539
O 2.0555856810099287 -5.8123376050536395 -1.805564502923976
H 2.9555856810099286 -5.8123376050536395 -1.805564502923976
H 1.7625743419984876 -4.9613708870142545 -1.805564502923976
O -4.994388900779038 3.148253314067764 -2.5277867251461985
H -4.0943889007790375 3.148253314067764 -2.5277867251461985
H -5.287400239790479 3.999220032107149 -2.5277867251461985
O 5.6846681234321235 1.3543401881228272 -3.250008947368422
H 6.584668123432124 1.3543401881228272 -3.250008947368422
H 5.391656784420682 2.205306906162212 -3.250008947368422
O -2.7722657809768187 -4.063315973636987 -3.972231169590643
H -1.8722657809768188 -4.063315973636987 -3.972231169590643
H -3.06527711998826 -3.2123492555976023 -3.972231169590643
O -0.39095906308428807 4.604167550397046 -4.694453391812866
H 0.509040936915712 4.604167550397046 -4.694453391812866
H -0.6839704020957291 5.455134268436431 -4.694453391812866
O 2.9341905525877565 -2.1698555095373475 -5.416675614035087
H 3.8341905525877564 -2.1698555095373475 -5.416675614035087
H 2.6411792135763155 -1.3188887914979623 -5.416675614035087
O -1.9477388855215412 0.05737922683392467 -6.13889783625731
H -1.0477388855215413 0.05737922683392467 -6.13889783625731
H -2.2407502245329822 0.9083459448733099 -6.13889783625731
O 2.715636189540197 0.2592606978825121 8.145824385964913
H 3.6156361895401967 0.2592606978825121 8.145824385964913
H 2.4226248505287558 1.1102274159218972 8.145824385964913
O -2.7467141194613816 -2.5204121285795917 7.437491052631579
H -1.8467141194613816 -2.5204121285795917 7.437491052631579
H -3.0397254584728226 -1.6694454105402066 7.437491052631579
O 0.7416026216644479 5.432479250501225 6.729157719298245
H 1.641602621664448 5.432479250501225 6.729157719298245
H 0.4485912826530069 6.28344596854061 6.729157719298245
O 3.9382030110911055 -4.502315106050276 6.020824385964912
H 4.838203011091106 -4.502315106050276 6.020824385964912
H 3.6451916720796644 -3.6513483880108915 6.020824385964912
O -6.246287751942019 1.4150120000757123 5.31249105263158
H -5.346287751942018 1.4150120000757123 5.31249105263158
H -6.53929909095346 2.2659787181150977 5.31249105263158
O 6.316260295439666 4.094206082552601 4.604157719298246
H 7.216260295439667 4.094206082552601 4.604157719298246
H 6.023248956428225 4.945172800591986 4.604157719298246
O -1.6736234462366184 -7.036362455299881 3.8958243859649113
H -0.7736234462366184 -7.036362455299881 3.8958243859649113
H -1.9666347852480595 -6.185395737260496 3.8958243859649113
O -3.3442222511835573 7.25209775237311 3.1874910526315796
H -2.4442222511835574 7.25209775237311 3.1874910526315796
H -3.6372335901949984 8.103064470412495 3.1874910526315796
O 7.924668694418129 -2.5297875161744163 2.4791577192982452
H 8.82466869441813 -2.5297875161744163 2.4791577192982452
H 7.631657355406688 -1.6788207981350312 2.4791577192982452
O -7.396947538263502 -2.9128054531631045 1.7708243859649127
H -6.496947538263502 -2.9128054531631045 1.7708243859649127
H -7.689958877274943 -2.061838735123719 1.7708243859649127
O 3.862025973864614 7.897618797482314 1.0624910526315798
H 4.762025973864614 7.897618797482314 1.0624910526315798
H 3.569014634853173 8.7485855155217 1.0624910526315798
O 2.8292954827210246 -7.8440909929478995 0.35415771929824547
H 3.7292954827210245 -7.8440909929478995 0.35415771929824547
H 2.5362841437095835 -6.9931242749085145 0.35415771929824547
O -7.060316720912986 4.517523909313985 -0.3541756140350886
H -6.160316720912985 4.517523909313985 -0.3541756140350886
H -7.353328059924427 5.36849062735337 -0.3541756140350886
O 8.524223204188841 2.070060995116365 -1.062508947368421
H 9.424223204188841 2.070060995116365 -1.062508947368421
H 8.2312118651774 2.92102771315575 -1.062508947368421
O -4.493742058692576 -6.541694774769153 -1.7708422807017536
H -3.5937420586925763 -6.541694774769153 -1.7708422807017536
H -4.786753397704017 -5.6907280567297684 -1.7708422807017536
O -0.7572540564408421 8.3222644599253 -2.4791756140350882
H 0.14274594355915793 8.3222644599253 -2.4791756140350882
H -1.0502653954522831 9.173231177964686 -2.4791756140350882
O 6.312804870362183 -4.818795212811235 -3.1875089473684213
H 7.212804870362183 -4.818795212811235 -3.1875089473684213
H 6.019793531350742 -3.96782849477185 -3.1875089473684213
O -7.260590089590224 -0.052880323256227046 -3.895842280701753
H -6.360590089590223 -0.052880323256227046 -3.895842280701753
H -7.553601428601665 0.7980863947831581 -3.895842280701753
O 5.352208984541131 5.299231194353185 -4.604175614035089
H 6.252208984541132 5.299231194353185 -4.604175614035089
H 5.05919764552969 6.15019791239257 -4.604175614035089
O -0.018902728507639965 -6.368967181587376 -5.312508947368421
H 0.8810972714923601 -6.368967181587376 -5.312508947368421
H -0.31191406751908096 -5.518000463547991 -5.312508947368421
O -3.556639844016838 4.8659350558488645 -6.020842280701756
H -2.656639844016838 4.8659350558488645 -6.020842280701756
H -3.849651183028279 5.7169017738882495 -6.020842280701756
O 5.434317125534987 -0.433223908394159 -6.729175614035089
H 6.334317125534987 -0.433223908394159 -6.729175614035089
H 5.141305786523546 0.4177428096452262 -6.729175614035089
O -3.09027698355783 -2.0909724566056087 -7.437508947368421
H -2.19027698355783 -2.0909724566056087 -7.437508947368421
H -3.383288322569271 -1.2400057385662235 -7.437508947368421
O 0.8205023477148043 2.6281012811645574 -8.145842280701753
H 1.7205023477148043 2.6281012811645574 -8.145842280701753
H 0.5274910087033633 3.4790679992039424 -8.145842280701753
