181
Molecule with added oxygen and hydrogen atoms
Ti         0.00012       -0.00001       -0.00009
O          0.31319       -1.69200        1.16178
H          0.11420       -2.60991        0.90712
O         -1.61888        0.57174        1.16721
H         -2.31410        1.20494        0.91685
O          1.30815        1.11366        1.16577
H          2.20312        1.40038        0.91321
O         -0.31287        1.69218       -1.16166
H         -0.71457        1.73734       -2.04656
O          1.61890       -0.57302       -1.16683
H          1.85599       -0.24705       -2.05229
O         -1.30871       -1.11252       -1.16613
H         -2.20386       -1.39847       -0.91338
H         -1.14676       -1.47959       -2.05241
H         -1.85645        0.24369        2.05175
H          0.71382       -1.73683        2.04721
H          2.31452       -1.20528       -0.91517
H          1.14565        1.48065        2.05198
H         -0.11254        2.60989       -0.90741
O 1.798379979137007 -1.1052631578949657e-05 4.12505
H 2.698379979137007 -1.1052631578949657e-05 4.12505
H 1.505368640125566 0.8509556654078062 4.12505
O -2.194813352508448 -2.010587800742139 3.37505
H -1.2948133525084482 -2.010587800742139 3.37505
H -2.487824691519889 -1.1596210827027538 3.37505
O 0.3194883676180273 3.6410417977048315 2.6250499999999994
H 1.2194883676180273 3.6410417977048315 2.6250499999999994
H 0.026477028606586295 4.4920085157442164 2.6250499999999994
O 2.48892479806046 -3.2464468513064806 1.8750499999999999
H 3.3889247980604598 -3.2464468513064806 1.8750499999999999
H 2.195913459049019 -2.395480133267095 1.8750499999999999
O -4.290558137694343 0.7589182145260628 1.1250499999999999
H -3.390558137694343 0.7589182145260628 1.1250499999999999
H -4.583569476705784 1.609884932565448 1.1250499999999999
O 3.7836353399218905 2.406864197909379 0.37505000000000027
H 4.68363533992189 2.406864197909379 0.37505000000000027
H 3.4906240009104494 3.257830915948764 0.37505000000000027
O -1.1642128301216246 -4.330613301229994 -0.3749499999999998
H -0.26421283012162455 -4.330613301229994 -0.3749499999999998
H -1.4572241691330656 -3.4796465831906094 -0.3749499999999998
O -2.0082777268282506 3.866696057838831 -1.1249499999999997
H -1.1082777268282507 3.866696057838831 -1.1249499999999997
H -2.3012890658396916 4.717662775878217 -1.1249499999999997
O 3.8424877596745626 -1.4033021782832447 -1.8749500000000008
H 4.742487759674563 -1.4033021782832447 -1.8749500000000008
H 3.5494764206631215 -0.5523354602438595 -1.8749500000000008
O -3.378584106810249 -1.3946179942624635 -2.6249499999999992
H -2.478584106810249 -1.3946179942624635 -2.6249499999999992
H -3.67159544582169 -0.5436512762230783 -2.6249499999999992
O 1.2615081421181906 2.695880041344822 -3.37495
H 2.1615081421181905 2.695880041344822 -3.37495
H 0.9684968031067496 3.5468467593842075 -3.37495
O 0.5381862797160487 -1.7160149401015476 -4.12495
H 1.4381862797160487 -1.7160149401015476 -4.12495
H 0.2451749407046077 -0.8650482220621625 -4.12495
O 2.323112643328221 0.14572380343221922 6.138938888888889
H 3.223112643328221 0.14572380343221922 6.138938888888889
H 2.03010130431678 0.9966905214716044 6.138938888888889
O -2.4626233929625605 -2.281319706792698 5.416716666666668
H -1.5626233929625606 -2.281319706792698 5.416716666666668
H -2.7556347319740016 -1.4303529887533128 5.416716666666668
O 0.5797988170727612 4.624306657195647 4.694494444444445
H 1.4797988170727612 4.624306657195647 4.694494444444445
H 0.28678747806132016 5.475273375235032 4.694494444444445
O 3.3171936054506177 -3.9373848869235792 3.9722722222222226
H 4.217193605450618 -3.9373848869235792 3.9722722222222226
H 3.0241822664391766 -3.086418168884194 3.9722722222222226
O -5.3563643098286535 1.1262227638420685 3.250050000000001
H -4.456364309828653 1.1262227638420685 3.250050000000001
H -5.649375648840095 1.9771894818814537 3.250050000000001
O 5.239452785679703 3.3598394069398716 2.527827777777778
H 6.139452785679703 3.3598394069398716 2.527827777777778
H 4.946441446668262 4.210806124979257 2.527827777777778
O -1.4342693603444663 -5.884389275939971 1.805605555555556
H -0.5342693603444663 -5.884389275939971 1.805605555555556
H -1.7272806993559073 -5.033422557900586 1.805605555555556
O -2.767242458930482 5.8334574901337035 1.0833833333333338
H -1.8672424589304821 5.8334574901337035 1.0833833333333338
H -3.060253797941923 6.6844242081730885 1.0833833333333338
O 6.2829094397160326 -2.08058366415096 0.3611611111111118
H 7.182909439716033 -2.08058366415096 0.3611611111111118
H 5.9898981007045915 -1.2296169461115747 0.3611611111111118
O -5.812216465348253 -2.3305625533766348 -0.36106111111111033
H -4.912216465348252 -2.3305625533766348 -0.36106111111111033
H -6.105227804359694 -1.4795958353372496 -0.36106111111111033
O 2.9032161154194482 5.950653040386114 -1.0832833333333325
H 3.803216115419448 5.950653040386114 -1.0832833333333325
H 2.610204776408007 6.801619758425499 -1.0832833333333325
O 2.055537259957297 -5.812262868211534 -1.8055055555555546
H 2.955537259957297 -5.812262868211534 -1.8055055555555546
H 1.7625259209458561 -4.961296150172149 -1.8055055555555546
O -4.994437321831669 3.1483280509098694 -2.527727777777777
H -4.094437321831669 3.1483280509098694 -2.527727777777777
H -5.28744866084311 3.9992947689492544 -2.527727777777777
O 5.684619702379492 1.3544149249649324 -3.2499500000000006
H 6.584619702379492 1.3544149249649324 -3.2499500000000006
H 5.391608363368051 2.2053816430043174 -3.2499500000000006
O -2.7723142020294502 -4.063241236794882 -3.9721722222222215
H -1.8723142020294503 -4.063241236794882 -3.9721722222222215
H -3.0653255410408913 -3.212274518755497 -3.9721722222222215
O -0.39100748413691955 4.604242287239151 -4.694394444444444
H 0.5089925158630805 4.604242287239151 -4.694394444444444
H -0.6840188231483606 5.455209005278536 -4.694394444444444
O 2.934142131535125 -2.1697807726952423 -5.416616666666665
H 3.834142131535125 -2.1697807726952423 -5.416616666666665
H 2.641130792523684 -1.318814054655857 -5.416616666666665
O -1.9477873065741726 0.057453963676029965 -6.138838888888888
H -1.0477873065741727 0.057453963676029965 -6.138838888888888
H -2.2407986455856137 0.9084206817154151 -6.138838888888888
O 2.7155877684875653 0.2593354347246175 8.145883333333334
H 3.6155877684875652 0.2593354347246175 8.145883333333334
H 2.4225764294761243 1.1103021527640027 8.145883333333334
O -2.746762540514013 -2.5203373917374865 7.437550000000001
H -1.8467625405140131 -2.5203373917374865 7.437550000000001
H -3.039773879525454 -1.6693706736981013 7.437550000000001
O 0.7415542006118163 5.43255398734333 6.729216666666667
H 1.6415542006118162 5.43255398734333 6.729216666666667
H 0.4485428616003753 6.283520705382715 6.729216666666667
O 3.938154590038474 -4.502240369208171 6.020883333333334
H 4.838154590038474 -4.502240369208171 6.020883333333334
H 3.645143251027033 -3.651273651168786 6.020883333333334
O -6.24633617299465 1.4150867369178177 5.312550000000002
H -5.34633617299465 1.4150867369178177 5.312550000000002
H -6.539347512006091 2.266053454957203 5.312550000000002
O 6.316211874387035 4.094280819394706 4.604216666666668
H 7.216211874387035 4.094280819394706 4.604216666666668
H 6.023200535375594 4.945247537434091 4.604216666666668
O -1.67367186728925 -7.036287718457776 3.8958833333333334
H -0.7736718672892501 -7.036287718457776 3.8958833333333334
H -1.9666832063006912 -6.185321000418391 3.8958833333333334
O -3.344270672236189 7.252172489215215 3.1875500000000017
H -2.444270672236189 7.252172489215215 3.1875500000000017
H -3.63728201124763 8.1031392072546 3.1875500000000017
O 7.924620273365497 -2.5297127793323106 2.4792166666666673
H 8.824620273365497 -2.5297127793323106 2.4792166666666673
H 7.631608934354056 -1.6787460612929255 2.4792166666666673
O -7.396995959316134 -2.912730716320999 1.7708833333333343
H -6.496995959316133 -2.912730716320999 1.7708833333333343
H -7.690007298327575 -2.061763998281614 1.7708833333333343
O 3.8619775528119824 7.89769353432442 1.0625500000000014
H 4.761977552811983 7.89769353432442 1.0625500000000014
H 3.5689662138005414 8.748660252363806 1.0625500000000014
O 2.829247061668393 -7.844016256105794 0.3542166666666672
H 3.729247061668393 -7.844016256105794 0.3542166666666672
H 2.536235722656952 -6.993049538066409 0.3542166666666672
O -7.060365141965617 4.51759864615609 -0.3541166666666669
H -6.160365141965617 4.51759864615609 -0.3541166666666669
H -7.353376480977058 5.368565364195475 -0.3541166666666669
O 8.52417478313621 2.0701357319584703 -1.0624499999999995
H 9.42417478313621 2.0701357319584703 -1.0624499999999995
H 8.23116344412477 2.9211024499978553 -1.0624499999999995
O -4.493790479745208 -6.541620037927048 -1.770783333333332
H -3.593790479745208 -6.541620037927048 -1.770783333333332
H -4.786801818756649 -5.690653319887663 -1.770783333333332
O -0.7573024774934738 8.322339196767405 -2.479116666666666
H 0.14269752250652623 8.322339196767405 -2.479116666666666
H -1.0503138165049148 9.173305914806791 -2.479116666666666
O 6.312756449309552 -4.81872047596913 -3.1874499999999992
H 7.212756449309552 -4.81872047596913 -3.1874499999999992
H 6.0197451102981105 -3.967753757929745 -3.1874499999999992
O -7.260638510642855 -0.05280558641412164 -3.895783333333331
H -6.360638510642855 -0.05280558641412164 -3.895783333333331
H -7.553649849654296 0.7981611316252635 -3.895783333333331
O 5.3521605634885 5.29930593119529 -4.604116666666667
H 6.2521605634885 5.29930593119529 -4.604116666666667
H 5.059149224477059 6.150272649234675 -4.604116666666667
O -0.018951149560271552 -6.368892444745271 -5.312449999999999
H 0.8810488504397285 -6.368892444745271 -5.312449999999999
H -0.31196248857171255 -5.517925726705886 -5.312449999999999
O -3.5566882650694693 4.86600979269097 -6.020783333333334
H -2.6566882650694694 4.86600979269097 -6.020783333333334
H -3.8496996040809104 5.716976510730355 -6.020783333333334
O 5.434268704482355 -0.43314917155205357 -6.729116666666667
H 6.334268704482356 -0.43314917155205357 -6.729116666666667
H 5.141257365470914 0.4178175464873316 -6.729116666666667
O -3.0903254046104616 -2.090897719763503 -7.437449999999999
H -2.1903254046104617 -2.090897719763503 -7.437449999999999
H -3.3833367436219026 -1.2399310017241179 -7.437449999999999
O 0.8204539266621727 2.6281760180066627 -8.145783333333332
H 1.7204539266621728 2.6281760180066627 -8.145783333333332
H 0.5274425876507316 3.4791427360460476 -8.145783333333332
