109
Molecule with added oxygen and hydrogen atoms
Ti        -0.00000       -0.00001       -0.00000
O          0.76888       -1.56409        1.18270
H          1.16298       -1.50045        2.08429
O          1.73796       -0.11840       -1.18422
H          1.87902        0.25343       -2.08648
O         -0.97286       -1.44775       -1.18085
H         -1.75808       -1.98348       -0.91772
O         -0.76886        1.56409       -1.18270
H         -0.84006        2.51242       -0.92115
O         -1.73796        0.11840        1.18423
H         -1.87899       -0.25338        2.08653
O          0.97283        1.44777        1.18084
H          1.75810        1.98345        0.91776
H          0.72244        1.75734        2.08290
H          2.59496       -0.53097       -0.92315
H          0.84019       -2.51242        0.92110
H         -2.59495        0.53099        0.92316
H         -0.72254       -1.75726       -2.08295
H         -1.16302        1.50045       -2.08427
O 1.798438926505428 6.842105263144286e-06 4.125001052631579
H 2.698438926505428 6.842105263144286e-06 4.125001052631579
H 1.5054275874939869 0.8509735601446483 4.125001052631579
O -2.194754405140027 -2.010569906005297 3.375001052631579
H -1.294754405140027 -2.010569906005297 3.375001052631579
H -2.487765744151468 -1.1596031879659117 3.375001052631579
O 0.3195473149864483 3.6410596924416736 2.6250010526315783
H 1.2195473149864484 3.6410596924416736 2.6250010526315783
H 0.026535975975007287 4.492026410481059 2.6250010526315783
O 2.488983745428881 -3.2464289565696385 1.875001052631579
H 3.388983745428881 -3.2464289565696385 1.875001052631579
H 2.19597240641744 -2.3954622385302535 1.875001052631579
O -4.290499190325922 0.7589361092629049 1.125001052631579
H -3.390499190325922 0.7589361092629049 1.125001052631579
H -4.583510529337363 1.6099028273022902 1.125001052631579
O 3.7836942872903117 2.4068820926462213 0.37500105263157923
H 4.683694287290312 2.4068820926462213 0.37500105263157923
H 3.4906829482788706 3.2578488106856067 0.37500105263157923
O -1.1641538827532036 -4.330595406493153 -0.3749989473684208
H -0.2641538827532036 -4.330595406493153 -0.3749989473684208
H -1.4571652217646447 -3.4796286884537677 -0.3749989473684208
O -2.0082187794598294 3.8667139525756733 -1.1249989473684205
H -1.1082187794598295 3.8667139525756733 -1.1249989473684205
H -2.3012301184712705 4.717680670615058 -1.1249989473684205
O 3.8425467070429837 -1.4032842835464026 -1.8749989473684217
H 4.742546707042984 -1.4032842835464026 -1.8749989473684217
H 3.5495353680315427 -0.5523175655070174 -1.8749989473684217
O -3.378525159441828 -1.3946000995256214 -2.6249989473684203
H -2.478525159441828 -1.3946000995256214 -2.6249989473684203
H -3.671536498453269 -0.5436333814862362 -2.6249989473684203
O 1.2615670894866116 2.695897936081664 -3.374998947368421
H 2.1615670894866117 2.695897936081664 -3.374998947368421
H 0.9685557504751705 3.546864654121049 -3.374998947368421
O 0.5382452270844698 -1.7159970453647055 -4.124998947368421
H 1.4382452270844697 -1.7159970453647055 -4.124998947368421
H 0.24523388807302876 -0.8650303273253204 -4.124998947368421
O 2.323171590696642 0.14574169816906132 6.138889941520468
H 3.223171590696642 0.14574169816906132 6.138889941520468
H 2.030160251685201 0.9967084162084465 6.138889941520468
O -2.4625644455941393 -2.281301812055856 5.416667719298246
H -1.5625644455941394 -2.281301812055856 5.416667719298246
H -2.7555757846055804 -1.4303350940164707 5.416667719298246
O 0.5798577644411822 4.62432455193249 4.694445497076024
H 1.4798577644411823 4.62432455193249 4.694445497076024
H 0.2868464254297412 5.4752912699718745 4.694445497076024
O 3.317252552819039 -3.937366992186737 3.972223274853802
H 4.217252552819039 -3.937366992186737 3.972223274853802
H 3.024241213807598 -3.086400274147352 3.972223274853802
O -5.356305362460232 1.1262406585789106 3.2500010526315806
H -4.456305362460232 1.1262406585789106 3.2500010526315806
H -5.649316701471673 1.9772073766182958 3.2500010526315806
O 5.239511733048124 3.3598573016767137 2.5277788304093574
H 6.139511733048124 3.3598573016767137 2.5277788304093574
H 4.946500394036683 4.210824019716099 2.5277788304093574
O -1.4342104129760453 -5.884371381203128 1.8055566081871353
H -0.5342104129760453 -5.884371381203128 1.8055566081871353
H -1.7272217519874864 -5.0334046631637435 1.8055566081871353
O -2.767183511562061 5.833475384870546 1.0833343859649132
H -1.867183511562061 5.833475384870546 1.0833343859649132
H -3.060194850573502 6.684442102909931 1.0833343859649132
O 6.282968387084454 -2.0805657694141177 0.3611121637426911
H 7.182968387084454 -2.0805657694141177 0.3611121637426911
H 5.989957048073013 -1.2295990513747326 0.3611121637426911
O -5.8121575179798315 -2.3305446586397927 -0.36111005847953104
H -4.912157517979831 -2.3305446586397927 -0.36111005847953104
H -6.1051688569912725 -1.4795779406004075 -0.36111005847953104
O 2.9032750627878694 5.9506709351229565 -1.0833322807017531
H 3.8032750627878693 5.9506709351229565 -1.0833322807017531
H 2.6102637237764283 6.8016376531623415 -1.0833322807017531
O 2.0555962073257183 -5.812244973474692 -1.8055545029239752
H 2.9555962073257183 -5.812244973474692 -1.8055545029239752
H 1.7625848683142773 -4.961278255435307 -1.8055545029239752
O -4.994378374463248 3.1483459456467116 -2.5277767251461976
H -4.094378374463248 3.1483459456467116 -2.5277767251461976
H -5.287389713474689 3.999312663686097 -2.5277767251461976
O 5.684678649747913 1.3544328197017745 -3.249998947368421
H 6.5846786497479135 1.3544328197017745 -3.249998947368421
H 5.391667310736472 2.20539953774116 -3.249998947368421
O -2.772255254661029 -4.0632233420580395 -3.972221169590642
H -1.8722552546610292 -4.0632233420580395 -3.972221169590642
H -3.06526659367247 -3.2122566240186545 -3.972221169590642
O -0.39094853676849844 4.604260181975993 -4.694443391812865
H 0.5090514632315015 4.604260181975993 -4.694443391812865
H -0.6839598757799394 5.455226900015378 -4.694443391812865
O 2.934201078903546 -2.1697628779584 -5.416665614035087
H 3.834201078903546 -2.1697628779584 -5.416665614035087
H 2.641189739892105 -1.318796159919015 -5.416665614035087
O -1.9477283592057517 0.05747185841287207 -6.138887836257309
H -1.0477283592057516 0.05747185841287207 -6.138887836257309
H -2.2407396982171925 0.9084385764522572 -6.138887836257309
