109
Molecule with added oxygen and hydrogen atoms
Ti         0.00000       -0.00001       -0.00000
O         -1.34111       -1.07186        1.16634
H         -2.24649       -1.32671        0.91655
O         -0.25913        1.69941        1.16308
H         -0.02645        2.61049        0.91238
O          1.60024       -0.62313        1.16579
H          2.27326       -1.28061        0.91712
O          1.34111        1.07188       -1.16632
H          1.18842        1.44789       -2.05055
O          0.25910       -1.69943       -1.16308
H          0.66249       -1.75657       -2.04658
O         -1.60022        0.62315       -1.16581
H         -2.27320        1.28067       -0.91715
H         -1.85019        0.30092       -2.04913
H         -0.66266        1.75655        2.04652
H         -1.18843       -1.44783        2.05059
H          0.02658       -2.61053       -0.91229
H          1.85017       -0.30093        2.04913
H          2.24651        1.32669       -0.91654
O 1.7984368212422701 2.1052631579202154e-06 4.125002631578948
H 2.6984368212422702 2.1052631579202154e-06 4.125002631578948
H 1.505425482230829 0.8509688233025431 4.125002631578948
O -2.194756510403185 -2.010574642847402 3.375002631578947
H -1.294756510403185 -2.010574642847402 3.375002631578947
H -2.487767849414626 -1.1596079248080169 3.375002631578947
O 0.3195452097232904 3.6410549555995684 2.6250026315789468
H 1.2195452097232904 3.6410549555995684 2.6250026315789468
H 0.026533870711849428 4.492021673638954 2.6250026315789468
O 2.488981640165723 -3.2464336934117437 1.8750026315789474
H 3.388981640165723 -3.2464336934117437 1.8750026315789474
H 2.195970301154282 -2.3954669753723588 1.8750026315789474
O -4.290501295589079 0.7589313724207997 1.1250026315789474
H -3.3905012955890794 0.7589313724207997 1.1250026315789474
H -4.58351263460052 1.609898090460185 1.1250026315789474
O 3.7836921820271536 2.406877355804116 0.37500263157894764
H 4.683692182027154 2.406877355804116 0.37500263157894764
H 3.4906808430157126 3.2578440738435015 0.37500263157894764
O -1.1641559880163614 -4.330600143335258 -0.3749973684210524
H -0.2641559880163614 -4.330600143335258 -0.3749973684210524
H -1.4571673270278025 -3.479633425295873 -0.3749973684210524
O -2.0082208847229874 3.866709215733568 -1.1249973684210521
H -1.1082208847229875 3.866709215733568 -1.1249973684210521
H -2.3012322237344285 4.717675933772953 -1.1249973684210521
O 3.8425446017798257 -1.4032890203885078 -1.8749973684210532
H 4.742544601779826 -1.4032890203885078 -1.8749973684210532
H 3.5495332627683847 -0.5523223023491226 -1.8749973684210532
O -3.378527264704986 -1.3946048363677266 -2.624997368421052
H -2.478527264704986 -1.3946048363677266 -2.624997368421052
H -3.671538603716427 -0.5436381183283414 -2.624997368421052
O 1.2615649842234538 2.695893199239559 -3.374997368421053
H 2.1615649842234537 2.695893199239559 -3.374997368421053
H 0.9685536452120127 3.546859917278944 -3.374997368421053
O 0.5382431218213118 -1.7160017822068108 -4.124997368421052
H 1.4382431218213119 -1.7160017822068108 -4.124997368421052
H 0.24523178280987085 -0.8650350641674256 -4.124997368421052
O 2.323169485433484 0.14573696132695604 6.138891520467835
H 3.223169485433484 0.14573696132695604 6.138891520467835
H 2.030158146422043 0.9967036793663412 6.138891520467835
O -2.4625665508572974 -2.281306548897961 5.416669298245614
H -1.5625665508572975 -2.281306548897961 5.416669298245614
H -2.7555778898687384 -1.430339830858576 5.416669298245614
O 0.5798556591780243 4.624319815090384 4.694447076023391
H 1.4798556591780243 4.624319815090384 4.694447076023391
H 0.2868443201665833 5.475286533129769 4.694447076023391
O 3.317250447555881 -3.9373717290288424 3.9722248538011695
H 4.217250447555881 -3.9373717290288424 3.9722248538011695
H 3.02423910854444 -3.0864050109894574 3.9722248538011695
O -5.35630746772339 1.1262359217368054 3.250002631578948
H -4.45630746772339 1.1262359217368054 3.250002631578948
H -5.649318806734831 1.9772026397761906 3.250002631578948
O 5.239509627784966 3.3598525648346085 2.527780409356725
H 6.139509627784967 3.3598525648346085 2.527780409356725
H 4.946498288773525 4.210819282873993 2.527780409356725
O -1.4342125182392031 -5.884376118045234 1.8055581871345026
H -0.5342125182392031 -5.884376118045234 1.8055581871345026
H -1.7272238572506442 -5.033409400005849 1.8055581871345026
O -2.767185616825219 5.833470648028441 1.0833359649122805
H -1.867185616825219 5.833470648028441 1.0833359649122805
H -3.06019695583666 6.684437366067826 1.0833359649122805
O 6.282966281821296 -2.080570506256223 0.3611137426900586
H 7.1829662818212965 -2.080570506256223 0.3611137426900586
H 5.989954942809855 -1.2296037882168378 0.3611137426900586
O -5.812159623242989 -2.330549395481898 -0.3611084795321636
H -4.912159623242989 -2.330549395481898 -0.3611084795321636
H -6.10517096225443 -1.4795826774425127 -0.3611084795321636
O 2.9032729575247114 5.950666198280851 -1.0833307017543858
H 3.8032729575247113 5.950666198280851 -1.0833307017543858
H 2.6102616185132703 6.801632916320236 -1.0833307017543858
O 2.0555941020625603 -5.812249710316797 -1.805552923976608
H 2.9555941020625602 -5.812249710316797 -1.805552923976608
H 1.7625827630511193 -4.961282992277412 -1.805552923976608
O -4.994380479726406 3.1483412088046063 -2.52777514619883
H -4.094380479726405 3.1483412088046063 -2.52777514619883
H -5.287391818737847 3.9993079268439917 -2.52777514619883
O 5.684676544484756 1.3544280828596693 -3.2499973684210537
H 6.584676544484756 1.3544280828596693 -3.2499973684210537
H 5.3916652054733145 2.2053948008990547 -3.2499973684210537
O -2.772257359924187 -4.063228078900145 -3.9722195906432747
H -1.8722573599241872 -4.063228078900145 -3.9722195906432747
H -3.065268698935628 -3.2122613608607598 -3.9722195906432747
O -0.3909506420316564 4.604255445133888 -4.694441812865498
H 0.5090493579683436 4.604255445133888 -4.694441812865498
H -0.6839619810430975 5.455222163173273 -4.694441812865498
O 2.934198973640388 -2.1697676148005054 -5.416664035087719
H 3.834198973640388 -2.1697676148005054 -5.416664035087719
H 2.641187634628947 -1.3188008967611202 -5.416664035087719
O -1.9477304644689095 0.05746712157076679 -6.138886257309942
H -1.0477304644689096 0.05746712157076679 -6.138886257309942
H -2.2407418034803506 0.908433839610152 -6.138886257309942
