181
Molecule with added oxygen and hydrogen atoms
V         -0.00000       -0.00001        0.00000
O         -1.56411       -0.00461        1.49515
H         -2.36869       -0.55885        1.49216
O         -1.05605        1.53775       -1.09653
H         -0.77393        1.95285       -1.93474
O          1.06187        1.52266        1.11183
H          1.72877        1.37412        1.81018
O          1.56422        0.00463       -1.49503
H          1.60002       -0.54551       -2.30160
O          1.05601       -1.53783        1.09647
H          0.77329       -1.95380        1.93405
O         -1.06194       -1.52258       -1.11189
H         -1.72930       -1.37392       -1.80977
H         -0.96287       -2.48953       -1.01336
H         -1.90628        1.94905       -0.84660
H         -1.59949        0.54513        2.30201
H          1.90681       -1.94831        0.84713
H          0.96319        2.48959        1.01276
H          2.36848        0.55932       -1.49222
O 1.7984368212422701 7.894736842086864e-06 4.125
H 2.6984368212422702 7.894736842086864e-06 4.125
H 1.505425482230829 0.8509746127762272 4.125
O -2.194756510403185 -2.010568853373718 3.375
H -1.294756510403185 -2.010568853373718 3.375
H -2.487767849414626 -1.1596021353343329 3.375
O 0.3195452097232904 3.6410607450732524 2.6249999999999996
H 1.2195452097232904 3.6410607450732524 2.6249999999999996
H 0.026533870711849428 4.492027463112637 2.6249999999999996
O 2.488981640165723 -3.2464279039380597 1.875
H 3.388981640165723 -3.2464279039380597 1.875
H 2.195970301154282 -2.3954611858986743 1.875
O -4.290501295589079 0.7589371618944838 1.125
H -3.3905012955890794 0.7589371618944838 1.125
H -4.58351263460052 1.609903879933869 1.125
O 3.7836921820271536 2.4068831452778 0.3750000000000003
H 4.683692182027154 2.4068831452778 0.3750000000000003
H 3.4906808430157126 3.257849863317185 0.3750000000000003
O -1.1641559880163614 -4.330594353861573 -0.3749999999999998
H -0.2641559880163614 -4.330594353861573 -0.3749999999999998
H -1.4571673270278025 -3.4796276358221885 -0.3749999999999998
O -2.0082208847229874 3.866715005207252 -1.1249999999999996
H -1.1082208847229875 3.866715005207252 -1.1249999999999996
H -2.3012322237344285 4.7176817232466375 -1.1249999999999996
O 3.8425446017798257 -1.4032832309148238 -1.8750000000000007
H 4.742544601779826 -1.4032832309148238 -1.8750000000000007
H 3.5495332627683847 -0.5523165128754386 -1.8750000000000007
O -3.378527264704986 -1.3945990468940426 -2.624999999999999
H -2.478527264704986 -1.3945990468940426 -2.624999999999999
H -3.671538603716427 -0.5436323288546574 -2.624999999999999
O 1.2615649842234538 2.695898988713243 -3.375
H 2.1615649842234537 2.695898988713243 -3.375
H 0.9685536452120127 3.5468657067526284 -3.375
O 0.5382431218213118 -1.7159959927331268 -4.125
H 1.4382431218213119 -1.7159959927331268 -4.125
H 0.24523178280987085 -0.8650292746937416 -4.125
O 2.323169485433484 0.14574275080064014 6.138888888888888
H 3.223169485433484 0.14574275080064014 6.138888888888888
H 2.030158146422043 0.9967094688400253 6.138888888888888
O -2.4625665508572974 -2.281300759424277 5.416666666666667
H -1.5625665508572975 -2.281300759424277 5.416666666666667
H -2.7555778898687384 -1.430334041384892 5.416666666666667
O 0.5798556591780243 4.624325604564069 4.694444444444445
H 1.4798556591780243 4.624325604564069 4.694444444444445
H 0.2868443201665833 5.475292322603454 4.694444444444445
O 3.317250447555881 -3.9373659395551583 3.9722222222222223
H 4.217250447555881 -3.9373659395551583 3.9722222222222223
H 3.02423910854444 -3.086399221515773 3.9722222222222223
O -5.35630746772339 1.1262417112104894 3.250000000000001
H -4.45630746772339 1.1262417112104894 3.250000000000001
H -5.649318806734831 1.9772084292498746 3.250000000000001
O 5.239509627784966 3.3598583543082925 2.5277777777777777
H 6.139509627784967 3.3598583543082925 2.5277777777777777
H 4.946498288773525 4.210825072347678 2.5277777777777777
O -1.4342125182392031 -5.884370328571549 1.8055555555555556
H -0.5342125182392031 -5.884370328571549 1.8055555555555556
H -1.7272238572506442 -5.033403610532164 1.8055555555555556
O -2.767185616825219 5.833476437502124 1.0833333333333335
H -1.867185616825219 5.833476437502124 1.0833333333333335
H -3.06019695583666 6.684443155541509 1.0833333333333335
O 6.282966281821296 -2.080564716782539 0.3611111111111115
H 7.1829662818212965 -2.080564716782539 0.3611111111111115
H 5.989954942809855 -1.2295979987431538 0.3611111111111115
O -5.812159623242989 -2.330543606008214 -0.36111111111111066
H -4.912159623242989 -2.330543606008214 -0.36111111111111066
H -6.10517096225443 -1.4795768879688287 -0.36111111111111066
O 2.9032729575247114 5.950671987754536 -1.0833333333333328
H 3.8032729575247113 5.950671987754536 -1.0833333333333328
H 2.6102616185132703 6.801638705793921 -1.0833333333333328
O 2.0555941020625603 -5.8122439208431125 -1.805555555555555
H 2.9555941020625602 -5.8122439208431125 -1.805555555555555
H 1.7625827630511193 -4.9612772028037275 -1.805555555555555
O -4.994380479726406 3.1483469982782903 -2.5277777777777772
H -4.094380479726405 3.1483469982782903 -2.5277777777777772
H -5.287391818737847 3.9993137163176753 -2.5277777777777772
O 5.684676544484756 1.3544338723333533 -3.250000000000001
H 6.584676544484756 1.3544338723333533 -3.250000000000001
H 5.3916652054733145 2.2054005903727383 -3.250000000000001
O -2.772257359924187 -4.063222289426461 -3.972222222222222
H -1.8722573599241872 -4.063222289426461 -3.972222222222222
H -3.065268698935628 -3.212255571387076 -3.972222222222222
O -0.3909506420316564 4.604261234607572 -4.694444444444445
H 0.5090493579683436 4.604261234607572 -4.694444444444445
H -0.6839619810430975 5.455227952646957 -4.694444444444445
O 2.934198973640388 -2.1697618253268214 -5.416666666666666
H 3.834198973640388 -2.1697618253268214 -5.416666666666666
H 2.641187634628947 -1.3187951072874362 -5.416666666666666
O -1.9477304644689095 0.05747291104445089 -6.138888888888888
H -1.0477304644689096 0.05747291104445089 -6.138888888888888
H -2.2407418034803506 0.908439629083836 -6.138888888888888
O 2.7156446105928285 0.25935438209303835 8.145833333333334
H 3.6156446105928284 0.25935438209303835 8.145833333333334
H 2.4226332715813874 1.1103211001324236 8.145833333333334
O -2.74670569840875 -2.5203184443690656 7.4375
H -1.84670569840875 -2.5203184443690656 7.4375
H -3.039717037420191 -1.6693517263296804 7.4375
O 0.7416110427170794 5.432572934711751 6.729166666666666
H 1.6416110427170794 5.432572934711751 6.729166666666666
H 0.44859970370563845 6.283539652751136 6.729166666666666
O 3.938211432143737 -4.50222142183975 6.020833333333333
H 4.838211432143737 -4.50222142183975 6.020833333333333
H 3.645200093132296 -3.6512547038003653 6.020833333333333
O -6.2462793308893865 1.4151056842862386 5.312500000000001
H -5.346279330889386 1.4151056842862386 5.312500000000001
H -6.5392906699008275 2.266072402325624 5.312500000000001
O 6.3162687164922975 4.094299766763127 4.604166666666667
H 7.216268716492298 4.094299766763127 4.604166666666667
H 6.023257377480856 4.945266484802512 4.604166666666667
O -1.673615025183987 -7.036268771089355 3.8958333333333326
H -0.773615025183987 -7.036268771089355 3.8958333333333326
H -1.966626364195428 -6.18530205304997 3.8958333333333326
O -3.3442138301309257 7.252191436583636 3.187500000000001
H -2.4442138301309257 7.252191436583636 3.187500000000001
H -3.6372251691423667 8.10315815462302 3.187500000000001
O 7.924677115470761 -2.52969383196389 2.4791666666666665
H 8.824677115470761 -2.52969383196389 2.4791666666666665
H 7.63166577645932 -1.678727113924505 2.4791666666666665
O -7.39693911721087 -2.9127117689525783 1.7708333333333337
H -6.49693911721087 -2.9127117689525783 1.7708333333333337
H -7.689950456222311 -2.061745050913193 1.7708333333333337
O 3.8620343949172455 7.897712481692841 1.0625000000000009
H 4.7620343949172455 7.897712481692841 1.0625000000000009
H 3.5690230559058045 8.748679199732226 1.0625000000000009
O 2.8293039037736563 -7.843997308737373 0.3541666666666667
H 3.729303903773656 -7.843997308737373 0.3541666666666667
H 2.536292564762215 -6.993030590697988 0.3541666666666667
O -7.060308299860354 4.517617593524511 -0.3541666666666674
H -6.160308299860354 4.517617593524511 -0.3541666666666674
H -7.353319638871795 5.368584311563896 -0.3541666666666674
O 8.524231625241473 2.0701546793268912 -1.0625
H 9.424231625241474 2.0701546793268912 -1.0625
H 8.231220286230032 2.921121397366276 -1.0625
O -4.493733637639945 -6.541601090558627 -1.7708333333333326
H -3.593733637639945 -6.541601090558627 -1.7708333333333326
H -4.786744976651386 -5.690634372519242 -1.7708333333333326
O -0.7572456353882107 8.322358144135826 -2.479166666666667
H 0.14275436461178936 8.322358144135826 -2.479166666666667
H -1.0502569743996517 9.173324862175212 -2.479166666666667
O 6.312813291414814 -4.818701528600709 -3.1875
H 7.212813291414815 -4.818701528600709 -3.1875
H 6.019801952403373 -3.967734810561324 -3.1875
O -7.260581668537592 -0.0527866390457008 -3.8958333333333317
H -6.360581668537591 -0.0527866390457008 -3.8958333333333317
H -7.553593007549033 0.7981800789936844 -3.8958333333333317
O 5.352217405593763 5.299324878563711 -4.604166666666668
H 6.252217405593763 5.299324878563711 -4.604166666666668
H 5.0592060665823215 6.150291596603096 -4.604166666666668
O -0.018894307455008474 -6.36887349737685 -5.3125
H 0.8811056925449916 -6.36887349737685 -5.3125
H -0.31190564646644947 -5.517906779337465 -5.3125
O -3.556631422964206 4.866028740059391 -6.020833333333335
H -2.6566314229642063 4.866028740059391 -6.020833333333335
H -3.8496427619756473 5.716995458098776 -6.020833333333335
O 5.434325546587619 -0.43313022418363273 -6.729166666666668
H 6.334325546587619 -0.43313022418363273 -6.729166666666668
H 5.141314207576178 0.41783649385575244 -6.729166666666668
O -3.0902685625051984 -2.0908787723950826 -7.4375
H -2.1902685625051985 -2.0908787723950826 -7.4375
H -3.3832799015166395 -1.2399120543556974 -7.4375
O 0.8205107687674358 2.6281949653750836 -8.145833333333332
H 1.720510768767436 2.6281949653750836 -8.145833333333332
H 0.5274994297559947 3.4791616834144685 -8.145833333333332
