181
Molecule with added oxygen and hydrogen atoms
V         -0.00065        0.00001       -0.00011
O          0.52604       -1.61084       -1.17777
H          0.10058       -2.49985       -1.18537
O          1.65520       -0.35063        1.18116
H          2.01613        0.24754        1.87691
O          1.13473        1.25803       -1.17826
H          0.79977        1.87224       -1.87340
O         -0.52513        1.61118        1.17792
H         -1.22895        1.62854        1.86807
O         -1.65566        0.35112       -1.18147
H         -2.02448       -0.25299       -1.86821
O         -1.13373       -1.25884        1.17866
H         -0.79616       -1.87527        1.87010
H         -2.11685       -1.33148        1.18806
H          2.21288       -1.16364        1.18711
H          1.22566       -1.62471       -1.87175
H         -2.20701        1.16822       -1.19508
H          2.11808        1.33205       -1.18199
H         -0.09628        2.49894        1.18615
O 1.7986562949264806 -2.0000000000084278e-05 4.125038421052632
H 2.6986562949264807 -2.0000000000084278e-05 4.125038421052632
H 1.5056449559150396 0.850946718039385 4.125038421052632
O -2.1945370367189745 -2.01059674811056 3.3750384210526314
H -1.2945370367189746 -2.01059674811056 3.3750384210526314
H -2.4875483757304155 -1.159630030071175 3.3750384210526314
O 0.31976468340750097 3.64103285033641 2.625038421052631
H 1.2197646834075009 3.64103285033641 2.625038421052631
H 0.026753344396059975 4.491999568375795 2.625038421052631
O 2.4892011138499335 -3.246455798674902 1.8750384210526316
H 3.3892011138499334 -3.246455798674902 1.8750384210526316
H 2.1961897748384924 -2.3954890806355165 1.8750384210526316
O -4.290281821904869 0.7589092671576416 1.1250384210526316
H -3.390281821904869 0.7589092671576416 1.1250384210526316
H -4.58329316091631 1.6098759851970268 1.1250384210526316
O 3.783911655711364 2.406855250540958 0.3750384210526319
H 4.6839116557113645 2.406855250540958 0.3750384210526319
H 3.490900316699923 3.257821968580343 0.3750384210526319
O -1.163936514332151 -4.330622248598416 -0.37496157894736815
H -0.26393651433215093 -4.330622248598416 -0.37496157894736815
H -1.456947853343592 -3.4796555305590307 -0.37496157894736815
O -2.008001411038777 3.86668711047041 -1.124961578947368
H -1.108001411038777 3.86668711047041 -1.124961578947368
H -2.301012750050218 4.717653828509795 -1.124961578947368
O 3.842764075464036 -1.403311125651666 -1.874961578947369
H 4.742764075464036 -1.403311125651666 -1.874961578947369
H 3.549752736452595 -0.5523444076122808 -1.874961578947369
O -3.3783077910207755 -1.3946269416308847 -2.6249615789473677
H -2.4783077910207756 -1.3946269416308847 -2.6249615789473677
H -3.6713191300322165 -0.5436602235914996 -2.6249615789473677
O 1.2617844579076642 2.695871093976401 -3.3749615789473686
H 2.161784457907664 2.695871093976401 -3.3749615789473686
H 0.9687731188962232 3.546837812015786 -3.3749615789473686
O 0.5384625955055223 -1.716023887469969 -4.124961578947368
H 1.4384625955055224 -1.716023887469969 -4.124961578947368
H 0.24545125649408134 -0.8650571694305838 -4.124961578947368
O 2.3233889591176946 0.14571485606379797 6.138927309941519
H 3.2233889591176945 0.14571485606379797 6.138927309941519
H 2.0303776201062536 0.9966815741031831 6.138927309941519
O -2.462347077173087 -2.2813286541611193 5.416705087719298
H -1.562347077173087 -2.2813286541611193 5.416705087719298
H -2.755358416184528 -1.4303619361217341 5.416705087719298
O 0.5800751328622349 4.624297709827227 4.694482865497076
H 1.4800751328622348 4.624297709827227 4.694482865497076
H 0.2870637938507939 5.475264427866612 4.694482865497076
O 3.3174699212400913 -3.9373938342920005 3.9722606432748533
H 4.217469921240092 -3.9373938342920005 3.9722606432748533
H 3.0244585822286503 -3.086427116252615 3.9722606432748533
O -5.3560879940391795 1.1262138164736473 3.250038421052632
H -4.456087994039179 1.1262138164736473 3.250038421052632
H -5.6490993330506205 1.9771805345130324 3.250038421052632
O 5.239729101469177 3.3598304595714503 2.5278161988304086
H 6.139729101469177 3.3598304595714503 2.5278161988304086
H 4.946717762457736 4.210797177610836 2.5278161988304086
O -1.4339930445549927 -5.884398223308391 1.8055939766081863
H -0.5339930445549926 -5.884398223308391 1.8055939766081863
H -1.7270043835664337 -5.033431505269006 1.8055939766081863
O -2.7669661431410084 5.833448542765282 1.0833717543859642
H -1.8669661431410085 5.833448542765282 1.0833717543859642
H -3.0599774821524495 6.684415260804667 1.0833717543859642
O 6.283185755505507 -2.080592611519381 0.36114953216374235
H 7.183185755505507 -2.080592611519381 0.36114953216374235
H 5.990174416494066 -1.229625893479996 0.36114953216374235
O -5.811940149558779 -2.330571500745056 -0.3610726900584798
H -4.911940149558778 -2.330571500745056 -0.3610726900584798
H -6.10495148857022 -1.4796047827056709 -0.3610726900584798
O 2.903492431208922 5.950644093017694 -1.083294912280702
H 3.8034924312089218 5.950644093017694 -1.083294912280702
H 2.610481092197481 6.8016108110570785 -1.083294912280702
O 2.055813575746771 -5.812271815579955 -1.8055171345029242
H 2.9558135757467707 -5.812271815579955 -1.8055171345029242
H 1.7628022367353298 -4.96130509754057 -1.8055171345029242
O -4.994161006042195 3.148319103541448 -2.5277393567251463
H -4.094161006042195 3.148319103541448 -2.5277393567251463
H -5.287172345053636 3.999285821580833 -2.5277393567251463
O 5.684896018168966 1.3544059775965112 -3.24996157894737
H 6.584896018168966 1.3544059775965112 -3.24996157894737
H 5.391884679157525 2.205372695635896 -3.24996157894737
O -2.7720378862399766 -4.063250184163303 -3.972183801169591
H -1.8720378862399767 -4.063250184163303 -3.972183801169591
H -3.0650492252514177 -3.2122834661239184 -3.972183801169591
O -0.39073116834744587 4.60423333987073 -4.694406023391814
H 0.5092688316525542 4.60423333987073 -4.694406023391814
H -0.6837425073588869 5.4552000579101145 -4.694406023391814
O 2.9344184473245987 -2.1697897200636636 -5.416628245614035
H 3.8344184473245986 -2.1697897200636636 -5.416628245614035
H 2.6414071083131576 -1.3188230020242784 -5.416628245614035
O -1.947510990784699 0.05744501630760872 -6.138850467836257
H -1.0475109907846991 0.05744501630760872 -6.138850467836257
H -2.24052232979614 0.9084117343469938 -6.138850467836257
O 2.715864084277039 0.2593264873561963 8.145871754385965
H 3.615864084277039 0.2593264873561963 8.145871754385965
H 2.422852745265598 1.1102932053955814 8.145871754385965
O -2.7464862247245394 -2.5203463391059073 7.437538421052631
H -1.8464862247245395 -2.5203463391059073 7.437538421052631
H -3.0394975637359805 -1.6693796210665222 7.437538421052631
O 0.7418305164012899 5.432545039974909 6.729205087719297
H 1.6418305164012899 5.432545039974909 6.729205087719297
H 0.44881917738984894 6.283511758014294 6.729205087719297
O 3.9384309058279476 -4.502249316576592 6.020871754385964
H 4.8384309058279475 -4.502249316576592 6.020871754385964
H 3.6454195668165066 -3.6512825985372075 6.020871754385964
O -6.246059857205176 1.4150777895493964 5.312538421052632
H -5.346059857205176 1.4150777895493964 5.312538421052632
H -6.539071196216617 2.2660445075887816 5.312538421052632
O 6.316488190176509 4.094271872026285 4.604205087719298
H 7.216488190176509 4.094271872026285 4.604205087719298
H 6.023476851165068 4.94523859006567 4.604205087719298
O -1.6733955514997763 -7.036296665826197 3.895871754385963
H -0.7733955514997762 -7.036296665826197 3.895871754385963
H -1.9664068905112173 -6.185329947786812 3.895871754385963
O -3.343994356446715 7.252163541846794 3.1875384210526314
H -2.4439943564467153 7.252163541846794 3.1875384210526314
H -3.637005695458156 8.103130259886179 3.1875384210526314
O 7.924896589154971 -2.529721726700732 2.479205087719297
H 8.82489658915497 -2.529721726700732 2.479205087719297
H 7.63188525014353 -1.6787550086613467 2.479205087719297
O -7.39671964352666 -2.91273966368942 1.7708717543859642
H -6.496719643526659 -2.91273966368942 1.7708717543859642
H -7.689730982538101 -2.061772945650035 1.7708717543859642
O 3.862253868601456 7.897684586955998 1.0625384210526314
H 4.762253868601456 7.897684586955998 1.0625384210526314
H 3.569242529590015 8.748651304995384 1.0625384210526314
O 2.8295233774578668 -7.8440252034742155 0.35420508771929715
H 3.7295233774578667 -7.8440252034742155 0.35420508771929715
H 2.5365120384464257 -6.9930584854348306 0.35420508771929715
O -7.060088826176143 4.517589698787669 -0.35412824561403694
H -6.160088826176143 4.517589698787669 -0.35412824561403694
H -7.353100165187584 5.368556416827054 -0.35412824561403694
O 8.524451098925683 2.0701267845900495 -1.0624615789473695
H 9.424451098925683 2.0701267845900495 -1.0624615789473695
H 8.231439759914242 2.921093502629435 -1.0624615789473695
O -4.493514163955734 -6.541628985295469 -1.770794912280702
H -3.5935141639557338 -6.541628985295469 -1.770794912280702
H -4.786525502967175 -5.6906622672560845 -1.770794912280702
O -0.7570261617040001 8.322330249398984 -2.4791282456140364
H 0.14297383829599997 8.322330249398984 -2.4791282456140364
H -1.050037500715441 9.17329696743837 -2.4791282456140364
O 6.313032765099026 -4.818729423337551 -3.1874615789473695
H 7.213032765099026 -4.818729423337551 -3.1874615789473695
H 6.020021426087585 -3.967762705298166 -3.1874615789473695
O -7.260362194853381 -0.05281453378254286 -3.895794912280701
H -6.360362194853381 -0.05281453378254286 -3.895794912280701
H -7.553373533864822 0.7981521842568423 -3.895794912280701
O 5.352436879277974 5.299296983826869 -4.604128245614037
H 6.252436879277974 5.299296983826869 -4.604128245614037
H 5.059425540266533 6.150263701866254 -4.604128245614037
O -0.018674833770797872 -6.368901392113692 -5.312461578947369
H 0.8813251662292021 -6.368901392113692 -5.312461578947369
H -0.31168617278223887 -5.517934674074307 -5.312461578947369
O -3.5564119492799957 4.8660008453225485 -6.020794912280704
H -2.656411949279996 4.8660008453225485 -6.020794912280704
H -3.8494232882914368 5.7169675633619335 -6.020794912280704
O 5.4345450202718295 -0.4331581189204748 -6.729128245614037
H 6.33454502027183 -0.4331581189204748 -6.729128245614037
H 5.1415336812603885 0.4178085991189104 -6.729128245614037
O -3.090049088820988 -2.0909066671319243 -7.437461578947369
H -2.190049088820988 -2.0909066671319243 -7.437461578947369
H -3.383060427832429 -1.2399399490925391 -7.437461578947369
O 0.8207302424516464 2.628167070638242 -8.145794912280701
H 1.7207302424516464 2.628167070638242 -8.145794912280701
H 0.5277189034402054 3.4791337886776272 -8.145794912280701
