109
Molecule with added oxygen and hydrogen atoms
V         -0.00065        0.00001       -0.00011
O          0.52604       -1.61084       -1.17777
H          0.10058       -2.49985       -1.18537
O          1.65520       -0.35063        1.18116
H          2.01613        0.24754        1.87691
O          1.13473        1.25803       -1.17826
H          0.79977        1.87224       -1.87340
O         -0.52513        1.61118        1.17792
H         -1.22895        1.62854        1.86807
O         -1.65566        0.35112       -1.18147
H         -2.02448       -0.25299       -1.86821
O         -1.13373       -1.25884        1.17866
H         -0.79616       -1.87527        1.87010
H         -2.11685       -1.33148        1.18806
H          2.21288       -1.16364        1.18711
H          1.22566       -1.62471       -1.87175
H         -2.20701        1.16822       -1.19508
H          2.11808        1.33205       -1.18199
H         -0.09628        2.49894        1.18615
O 1.7986562949264806 -2.0000000000084278e-05 4.125038421052632
H 2.6986562949264807 -2.0000000000084278e-05 4.125038421052632
H 1.5056449559150396 0.850946718039385 4.125038421052632
O -2.1945370367189745 -2.01059674811056 3.3750384210526314
H -1.2945370367189746 -2.01059674811056 3.3750384210526314
H -2.4875483757304155 -1.159630030071175 3.3750384210526314
O 0.31976468340750097 3.64103285033641 2.625038421052631
H 1.2197646834075009 3.64103285033641 2.625038421052631
H 0.026753344396059975 4.491999568375795 2.625038421052631
O 2.4892011138499335 -3.246455798674902 1.8750384210526316
H 3.3892011138499334 -3.246455798674902 1.8750384210526316
H 2.1961897748384924 -2.3954890806355165 1.8750384210526316
O -4.290281821904869 0.7589092671576416 1.1250384210526316
H -3.390281821904869 0.7589092671576416 1.1250384210526316
H -4.58329316091631 1.6098759851970268 1.1250384210526316
O 3.783911655711364 2.406855250540958 0.3750384210526319
H 4.6839116557113645 2.406855250540958 0.3750384210526319
H 3.490900316699923 3.257821968580343 0.3750384210526319
O -1.163936514332151 -4.330622248598416 -0.37496157894736815
H -0.26393651433215093 -4.330622248598416 -0.37496157894736815
H -1.456947853343592 -3.4796555305590307 -0.37496157894736815
O -2.008001411038777 3.86668711047041 -1.124961578947368
H -1.108001411038777 3.86668711047041 -1.124961578947368
H -2.301012750050218 4.717653828509795 -1.124961578947368
O 3.842764075464036 -1.403311125651666 -1.874961578947369
H 4.742764075464036 -1.403311125651666 -1.874961578947369
H 3.549752736452595 -0.5523444076122808 -1.874961578947369
O -3.3783077910207755 -1.3946269416308847 -2.6249615789473677
H -2.4783077910207756 -1.3946269416308847 -2.6249615789473677
H -3.6713191300322165 -0.5436602235914996 -2.6249615789473677
O 1.2617844579076642 2.695871093976401 -3.3749615789473686
H 2.161784457907664 2.695871093976401 -3.3749615789473686
H 0.9687731188962232 3.546837812015786 -3.3749615789473686
O 0.5384625955055223 -1.716023887469969 -4.124961578947368
H 1.4384625955055224 -1.716023887469969 -4.124961578947368
H 0.24545125649408134 -0.8650571694305838 -4.124961578947368
O 2.3233889591176946 0.14571485606379797 6.138927309941519
H 3.2233889591176945 0.14571485606379797 6.138927309941519
H 2.0303776201062536 0.9966815741031831 6.138927309941519
O -2.462347077173087 -2.2813286541611193 5.416705087719298
H -1.562347077173087 -2.2813286541611193 5.416705087719298
H -2.755358416184528 -1.4303619361217341 5.416705087719298
O 0.5800751328622349 4.624297709827227 4.694482865497076
H 1.4800751328622348 4.624297709827227 4.694482865497076
H 0.2870637938507939 5.475264427866612 4.694482865497076
O 3.3174699212400913 -3.9373938342920005 3.9722606432748533
H 4.217469921240092 -3.9373938342920005 3.9722606432748533
H 3.0244585822286503 -3.086427116252615 3.9722606432748533
O -5.3560879940391795 1.1262138164736473 3.250038421052632
H -4.456087994039179 1.1262138164736473 3.250038421052632
H -5.6490993330506205 1.9771805345130324 3.250038421052632
O 5.239729101469177 3.3598304595714503 2.5278161988304086
H 6.139729101469177 3.3598304595714503 2.5278161988304086
H 4.946717762457736 4.210797177610836 2.5278161988304086
O -1.4339930445549927 -5.884398223308391 1.8055939766081863
H -0.5339930445549926 -5.884398223308391 1.8055939766081863
H -1.7270043835664337 -5.033431505269006 1.8055939766081863
O -2.7669661431410084 5.833448542765282 1.0833717543859642
H -1.8669661431410085 5.833448542765282 1.0833717543859642
H -3.0599774821524495 6.684415260804667 1.0833717543859642
O 6.283185755505507 -2.080592611519381 0.36114953216374235
H 7.183185755505507 -2.080592611519381 0.36114953216374235
H 5.990174416494066 -1.229625893479996 0.36114953216374235
O -5.811940149558779 -2.330571500745056 -0.3610726900584798
H -4.911940149558778 -2.330571500745056 -0.3610726900584798
H -6.10495148857022 -1.4796047827056709 -0.3610726900584798
O 2.903492431208922 5.950644093017694 -1.083294912280702
H 3.8034924312089218 5.950644093017694 -1.083294912280702
H 2.610481092197481 6.8016108110570785 -1.083294912280702
O 2.055813575746771 -5.812271815579955 -1.8055171345029242
H 2.9558135757467707 -5.812271815579955 -1.8055171345029242
H 1.7628022367353298 -4.96130509754057 -1.8055171345029242
O -4.994161006042195 3.148319103541448 -2.5277393567251463
H -4.094161006042195 3.148319103541448 -2.5277393567251463
H -5.287172345053636 3.999285821580833 -2.5277393567251463
O 5.684896018168966 1.3544059775965112 -3.24996157894737
H 6.584896018168966 1.3544059775965112 -3.24996157894737
H 5.391884679157525 2.205372695635896 -3.24996157894737
O -2.7720378862399766 -4.063250184163303 -3.972183801169591
H -1.8720378862399767 -4.063250184163303 -3.972183801169591
H -3.0650492252514177 -3.2122834661239184 -3.972183801169591
O -0.39073116834744587 4.60423333987073 -4.694406023391814
H 0.5092688316525542 4.60423333987073 -4.694406023391814
H -0.6837425073588869 5.4552000579101145 -4.694406023391814
O 2.9344184473245987 -2.1697897200636636 -5.416628245614035
H 3.8344184473245986 -2.1697897200636636 -5.416628245614035
H 2.6414071083131576 -1.3188230020242784 -5.416628245614035
O -1.947510990784699 0.05744501630760872 -6.138850467836257
H -1.0475109907846991 0.05744501630760872 -6.138850467836257
H -2.24052232979614 0.9084117343469938 -6.138850467836257
