109
Molecule with added oxygen and hydrogen atoms
Fe        -0.00001        0.00001       -0.00000
O          1.72390        0.81497        0.97594
H          1.85772        0.88354        1.93333
O         -0.91753        1.94327       -0.00587
H         -1.69026        2.21566       -0.52339
O          0.90599        0.42075       -1.86044
H          1.51583       -0.15629       -2.34541
O         -1.72385       -0.81508       -0.97596
H         -2.51375       -1.18249       -0.55153
O          0.91754       -1.94325        0.00590
H          1.69044       -2.21551        0.52322
O         -0.90600       -0.42075        1.86044
H         -1.51571        0.15632        2.34553
H         -0.85278       -1.25643        2.34923
H         -0.63664        2.71684        0.50580
H          2.51342        1.18320        0.55148
H          0.63657       -2.71690       -0.50562
H          0.85265        1.25635       -2.34936
H         -1.85753       -0.88386       -1.93335
O 1.7984368212422701 1.8421052631588604e-05 4.124996842105263
H 2.6984368212422702 1.8421052631588604e-05 4.124996842105263
H 1.505425482230829 0.8509851390920168 4.124996842105263
O -2.194756510403185 -2.0105583270579284 3.374996842105263
H -1.294756510403185 -2.0105583270579284 3.374996842105263
H -2.487767849414626 -1.1595916090185432 3.374996842105263
O 0.3195452097232904 3.641071271389042 2.6249968421052627
H 1.2195452097232904 3.641071271389042 2.6249968421052627
H 0.026533870711849428 4.492037989428427 2.6249968421052627
O 2.488981640165723 -3.24641737762227 1.8749968421052632
H 3.388981640165723 -3.24641737762227 1.8749968421052632
H 2.195970301154282 -2.3954506595828846 1.8749968421052632
O -4.290501295589079 0.7589476882102734 1.1249968421052632
H -3.3905012955890794 0.7589476882102734 1.1249968421052632
H -4.58351263460052 1.6099144062496586 1.1249968421052632
O 3.7836921820271536 2.40689367159359 0.37499684210526346
H 4.683692182027154 2.40689367159359 0.37499684210526346
H 3.4906808430157126 3.2578603896329748 0.37499684210526346
O -1.1641559880163614 -4.330583827545784 -0.3750031578947366
H -0.2641559880163614 -4.330583827545784 -0.3750031578947366
H -1.4571673270278025 -3.479617109506399 -0.3750031578947366
O -2.0082208847229874 3.8667255315230418 -1.1250031578947364
H -1.1082208847229875 3.8667255315230418 -1.1250031578947364
H -2.3012322237344285 4.717692249562427 -1.1250031578947364
O 3.8425446017798257 -1.4032727045990343 -1.8750031578947375
H 4.742544601779826 -1.4032727045990343 -1.8750031578947375
H 3.5495332627683847 -0.5523059865596491 -1.8750031578947375
O -3.378527264704986 -1.394588520578253 -2.625003157894736
H -2.478527264704986 -1.394588520578253 -2.625003157894736
H -3.671538603716427 -0.5436218025388679 -2.625003157894736
O 1.2615649842234538 2.6959095150290326 -3.375003157894737
H 2.1615649842234537 2.6959095150290326 -3.375003157894737
H 0.9685536452120127 3.546876233068418 -3.375003157894737
O 0.5382431218213118 -1.7159854664173373 -4.125003157894737
H 1.4382431218213119 -1.7159854664173373 -4.125003157894737
H 0.24523178280987085 -0.8650187483779521 -4.125003157894737
O 2.323169485433484 0.14575327711642974 6.138885730994151
H 3.223169485433484 0.14575327711642974 6.138885730994151
H 2.030158146422043 0.9967199951558149 6.138885730994151
O -2.4625665508572974 -2.2812902331084874 5.416663508771929
H -1.5625665508572975 -2.2812902331084874 5.416663508771929
H -2.7555778898687384 -1.4303235150691023 5.416663508771929
O 0.5798556591780243 4.624336130879858 4.694441286549707
H 1.4798556591780243 4.624336130879858 4.694441286549707
H 0.2868443201665833 5.475302848919243 4.694441286549707
O 3.317250447555881 -3.9373554132393687 3.972219064327485
H 4.217250447555881 -3.9373554132393687 3.972219064327485
H 3.02423910854444 -3.0863886951999833 3.972219064327485
O -5.35630746772339 1.1262522375262791 3.2499968421052636
H -4.45630746772339 1.1262522375262791 3.2499968421052636
H -5.649318806734831 1.9772189555656643 3.2499968421052636
O 5.239509627784966 3.359868880624082 2.5277746198830404
H 6.139509627784967 3.359868880624082 2.5277746198830404
H 4.946498288773525 4.210835598663468 2.5277746198830404
O -1.4342125182392031 -5.88435980225576 1.805552397660818
H -0.5342125182392031 -5.88435980225576 1.805552397660818
H -1.7272238572506442 -5.033393084216375 1.805552397660818
O -2.767185616825219 5.833486963817914 1.083330175438596
H -1.867185616825219 5.833486963817914 1.083330175438596
H -3.06019695583666 6.684453681857299 1.083330175438596
O 6.282966281821296 -2.0805541904667493 0.3611079532163741
H 7.1829662818212965 -2.0805541904667493 0.3611079532163741
H 5.989954942809855 -1.229587472427364 0.3611079532163741
O -5.812159623242989 -2.330533079692424 -0.36111426900584803
H -4.912159623242989 -2.330533079692424 -0.36111426900584803
H -6.10517096225443 -1.479566361653039 -0.36111426900584803
O 2.9032729575247114 5.950682514070325 -1.0833364912280703
H 3.8032729575247113 5.950682514070325 -1.0833364912280703
H 2.6102616185132703 6.8016492321097095 -1.0833364912280703
O 2.0555941020625603 -5.812233394527324 -1.8055587134502924
H 2.9555941020625602 -5.812233394527324 -1.8055587134502924
H 1.7625827630511193 -4.961266676487939 -1.8055587134502924
O -4.994380479726406 3.14835752459408 -2.5277809356725145
H -4.094380479726405 3.14835752459408 -2.5277809356725145
H -5.287391818737847 3.999324242633465 -2.5277809356725145
O 5.684676544484756 1.354444398649143 -3.250003157894738
H 6.584676544484756 1.354444398649143 -3.250003157894738
H 5.3916652054733145 2.205411116688528 -3.250003157894738
O -2.772257359924187 -4.0632117631106714 -3.972225380116959
H -1.8722573599241872 -4.0632117631106714 -3.972225380116959
H -3.065268698935628 -3.2122450450712865 -3.972225380116959
O -0.3909506420316564 4.604271760923361 -4.694447602339182
H 0.5090493579683436 4.604271760923361 -4.694447602339182
H -0.6839619810430975 5.455238478962746 -4.694447602339182
O 2.934198973640388 -2.1697512990110317 -5.416669824561404
H 3.834198973640388 -2.1697512990110317 -5.416669824561404
H 2.641187634628947 -1.3187845809716465 -5.416669824561404
O -1.9477304644689095 0.05748343736024049 -6.138892046783626
H -1.0477304644689096 0.05748343736024049 -6.138892046783626
H -2.2407418034803506 0.9084501553996257 -6.138892046783626
