109
Molecule with added oxygen and hydrogen atoms
Fe        -0.00033       -0.00022       -0.00007
O          1.40071       -1.31307        0.98094
H          1.48680       -1.44382        1.94512
O          1.45297        1.60185        0.06913
H          1.41648        2.43969       -0.43172
O          0.78624       -0.62639       -1.87276
H          0.51281       -1.41583       -2.38047
O         -1.39969        1.31449       -0.98071
H         -2.08738        1.85955       -0.55181
O         -1.45319       -1.60220       -0.06927
H         -1.41847       -2.43830        0.43464
O         -0.78587        0.62628        1.87293
H         -0.51324        1.41735        2.37847
H         -1.54922        0.23174        2.33914
H          2.25660        1.63556        0.62337
H          2.08043       -1.86755        0.55101
H         -2.25482       -1.63800       -0.62627
H          1.55090       -0.23212       -2.33709
H         -1.48168        1.44995       -1.94451
O 1.7984394528212175 -5.4736842105236094e-05 4.125003684210526
H 2.6984394528212174 -5.4736842105236094e-05 4.125003684210526
H 1.5054281138097765 0.85091198119728 4.125003684210526
O -2.194753878824238 -2.010631484952665 3.3750036842105264
H -1.2947538788242379 -2.010631484952665 3.3750036842105264
H -2.487765217835679 -1.15966476691328 3.3750036842105264
O 0.31954784130223773 3.6409981134943052 2.625003684210526
H 1.2195478413022378 3.6409981134943052 2.625003684210526
H 0.026536502290796737 4.49196483153369 2.625003684210526
O 2.48898427174467 -3.246490535517007 1.8750036842105264
H 3.38898427174467 -3.246490535517007 1.8750036842105264
H 2.195972932733229 -2.3955238174776214 1.8750036842105264
O -4.290498664010132 0.7588745303155365 1.1250036842105264
H -3.390498664010132 0.7588745303155365 1.1250036842105264
H -4.583510003021573 1.6098412483549218 1.1250036842105264
O 3.783694813606101 2.406820513698853 0.3750036842105266
H 4.683694813606101 2.406820513698853 0.3750036842105266
H 3.4906834745946598 3.257787231738238 0.3750036842105266
O -1.164153356437414 -4.330656985440521 -0.37499631578947346
H -0.264153356437414 -4.330656985440521 -0.37499631578947346
H -1.457164695448855 -3.4796902674011356 -0.37499631578947346
O -2.0082182531440402 3.866652373628305 -1.1249963157894731
H -1.1082182531440403 3.866652373628305 -1.1249963157894731
H -2.3012295921554813 4.71761909166769 -1.1249963157894731
O 3.842547233358773 -1.4033458624937711 -1.8749963157894742
H 4.742547233358773 -1.4033458624937711 -1.8749963157894742
H 3.549535894347332 -0.552379144454386 -1.8749963157894742
O -3.378524633126039 -1.39466167847299 -2.6249963157894727
H -2.478524633126039 -1.39466167847299 -2.6249963157894727
H -3.67153597213748 -0.5436949604336048 -2.6249963157894727
O 1.2615676158024012 2.695836357134296 -3.3749963157894736
H 2.1615676158024013 2.695836357134296 -3.3749963157894736
H 0.9685562767909601 3.546803075173681 -3.3749963157894736
O 0.5382457534002592 -1.7160586243120741 -4.124996315789474
H 1.4382457534002593 -1.7160586243120741 -4.124996315789474
H 0.24523441438881816 -0.865091906272689 -4.124996315789474
O 2.3231721170124313 0.1456801192216929 6.138892573099414
H 3.2231721170124312 0.1456801192216929 6.138892573099414
H 2.0301607780009903 0.9966468372610781 6.138892573099414
O -2.46256391927835 -2.2813633910032243 5.416670350877193
H -1.5625639192783503 -2.2813633910032243 5.416670350877193
H -2.755575258289791 -1.430396672963839 5.416670350877193
O 0.5798582907569716 4.624262972985121 4.694448128654971
H 1.4798582907569715 4.624262972985121 4.694448128654971
H 0.2868469517455306 5.475229691024506 4.694448128654971
O 3.317253079134828 -3.9374285711341055 3.9722259064327483
H 4.217253079134828 -3.9374285711341055 3.9722259064327483
H 3.024241740123387 -3.08646185309472 3.9722259064327483
O -5.356304836144442 1.1261790796315423 3.250003684210527
H -4.456304836144442 1.1261790796315423 3.250003684210527
H -5.649316175155883 1.9771457976709275 3.250003684210527
O 5.239512259363914 3.3597957227293453 2.5277814619883037
H 6.139512259363914 3.3597957227293453 2.5277814619883037
H 4.946500920352473 4.210762440768731 2.5277814619883037
O -1.434209886660256 -5.884432960150497 1.8055592397660818
H -0.5342098866602559 -5.884432960150497 1.8055592397660818
H -1.727221225671697 -5.033466242111112 1.8055592397660818
O -2.7671829852462717 5.833413805923177 1.0833370175438597
H -1.8671829852462718 5.833413805923177 1.0833370175438597
H -3.0601943242577128 6.684380523962562 1.0833370175438597
O 6.282968913400244 -2.080627348361486 0.3611147953216376
H 7.182968913400244 -2.080627348361486 0.3611147953216376
H 5.989957574388803 -1.229660630322101 0.3611147953216376
O -5.812156991664041 -2.330606237587161 -0.36110742690058456
H -4.912156991664041 -2.330606237587161 -0.36110742690058456
H -6.1051683306754825 -1.4796395195477758 -0.36110742690058456
O 2.9032755891036586 5.950609356175588 -1.0833296491228066
H 3.8032755891036585 5.950609356175588 -1.0833296491228066
H 2.6102642500922175 6.801576074214973 -1.0833296491228066
O 2.0555967336415075 -5.8123065524220605 -1.8055518713450287
H 2.9555967336415074 -5.8123065524220605 -1.8055518713450287
H 1.7625853946300665 -4.961339834382676 -1.8055518713450287
O -4.994377848147458 3.148284366699343 -2.5277740935672512
H -4.094377848147458 3.148284366699343 -2.5277740935672512
H -5.287389187158899 3.999251084738728 -2.5277740935672512
O 5.684679176063703 1.3543712407544062 -3.249996315789475
H 6.584679176063704 1.3543712407544062 -3.249996315789475
H 5.391667837052262 2.205337958793791 -3.249996315789475
O -2.77225472834524 -4.063284921005408 -3.972218538011696
H -1.87225472834524 -4.063284921005408 -3.972218538011696
H -3.065266067356681 -3.2123182029660233 -3.972218538011696
O -0.3909480104527091 4.604198603028625 -4.694440760233919
H 0.5090519895472909 4.604198603028625 -4.694440760233919
H -0.68395934946415 5.4551653210680096 -4.694440760233919
O 2.9342016052193354 -2.1698244569057685 -5.41666298245614
H 3.8342016052193353 -2.1698244569057685 -5.41666298245614
H 2.6411902662078943 -1.3188577388663834 -5.41666298245614
O -1.9477278328899623 0.05741027946550366 -6.138885204678362
H -1.0477278328899624 0.05741027946550366 -6.138885204678362
H -2.2407391719014034 0.9083769975048889 -6.138885204678362
