55
Molecule with added oxygen and hydrogen atoms
Fe         0.00005        0.00000        0.00001
O         -0.17083       -1.18495        1.75140
H         -0.98746       -1.40446        2.21311
O          2.13346       -0.33055       -0.01514
H          2.61409       -0.94248       -0.58249
O         -0.28415       -1.77527       -1.16739
H         -0.29752       -1.82528       -2.12914
O          0.17069        1.18499       -1.75138
H         -0.54715        1.64534       -2.19974
O         -2.13344        0.33048        0.01515
H         -2.61407        0.94275        0.58212
O          0.28415        1.77531        1.16736
H          0.29713        1.82542        2.12908
H          0.42285        2.66734        0.83168
H          2.78423        0.10546        0.54498
H          0.54686       -1.64533        2.19997
H         -2.78421       -0.10597       -0.54463
H         -0.42223       -2.66743       -0.83173
H          0.98718        1.40461       -2.21328
O 1.7984173475580596 -1.0526315789893242e-06 4.124996842105263
H 2.6984173475580597 -1.0526315789893242e-06 4.124996842105263
H 1.5054060085466185 0.8509656654078062 4.124996842105263
O -2.1947759840873955 -2.010577800742139 3.374996842105263
H -1.2947759840873956 -2.010577800742139 3.374996842105263
H -2.4877873230988365 -1.1596110827027537 3.374996842105263
O 0.31952573603907997 3.6410517977048316 2.6249968421052627
H 1.2195257360390799 3.6410517977048316 2.6249968421052627
H 0.02651439702763897 4.492018515744217 2.6249968421052627
O 2.4889621664815125 -3.2464368513064805 1.8749968421052632
H 3.3889621664815124 -3.2464368513064805 1.8749968421052632
H 2.1959508274700714 -2.3954701332670956 1.8749968421052632
O -4.290520769273289 0.7589282145260627 1.1249968421052632
H -3.3905207692732895 0.7589282145260627 1.1249968421052632
H -4.5835321082847305 1.609894932565448 1.1249968421052632
O 3.783672708342943 2.4068741979093793 0.37499684210526346
H 4.683672708342943 2.4068741979093793 0.37499684210526346
H 3.490661369331502 3.2578409159487647 0.37499684210526346
O -1.164175461700572 -4.330603301229995 -0.3750031578947366
H -0.26417546170057193 -4.330603301229995 -0.3750031578947366
H -1.457186800712013 -3.4796365831906098 -0.3750031578947366
O -2.008240358407198 3.8667060578388313 -1.1250031578947364
H -1.108240358407198 3.8667060578388313 -1.1250031578947364
H -2.301251697418639 4.717672775878216 -1.1250031578947364
O 3.842525128095615 -1.4032921782832448 -1.8750031578947375
H 4.7425251280956155 -1.4032921782832448 -1.8750031578947375
H 3.549513789084174 -0.5523254602438596 -1.8750031578947375
O -3.3785467383891965 -1.3946079942624636 -2.625003157894736
H -2.4785467383891966 -1.3946079942624636 -2.625003157894736
H -3.6715580774006376 -0.5436412762230785 -2.625003157894736
O 1.2615455105392432 2.695890041344822 -3.375003157894737
H 2.161545510539243 2.695890041344822 -3.375003157894737
H 0.9685341715278022 3.546856759384207 -3.375003157894737
O 0.5382236481371013 -1.7160049401015478 -4.125003157894737
H 1.4382236481371014 -1.7160049401015478 -4.125003157894737
H 0.24521230912566033 -0.8650382220621626 -4.125003157894737
