55
Molecule with added oxygen and hydrogen atoms
Fe        -0.00033       -0.00022       -0.00007
O          1.40071       -1.31307        0.98094
H          1.48680       -1.44382        1.94512
O          1.45297        1.60185        0.06913
H          1.41648        2.43969       -0.43172
O          0.78624       -0.62639       -1.87276
H          0.51281       -1.41583       -2.38047
O         -1.39969        1.31449       -0.98071
H         -2.08738        1.85955       -0.55181
O         -1.45319       -1.60220       -0.06927
H         -1.41847       -2.43830        0.43464
O         -0.78587        0.62628        1.87293
H         -0.51324        1.41735        2.37847
H         -1.54922        0.23174        2.33914
H          2.25660        1.63556        0.62337
H          2.08043       -1.86755        0.55101
H         -2.25482       -1.63800       -0.62627
H          1.55090       -0.23212       -2.33709
H         -1.48168        1.44995       -1.94451
O 1.7984394528212175 -5.4736842105236094e-05 4.125003684210526
H 2.6984394528212174 -5.4736842105236094e-05 4.125003684210526
H 1.5054281138097765 0.85091198119728 4.125003684210526
O -2.194753878824238 -2.010631484952665 3.3750036842105264
H -1.2947538788242379 -2.010631484952665 3.3750036842105264
H -2.487765217835679 -1.15966476691328 3.3750036842105264
O 0.31954784130223773 3.6409981134943052 2.625003684210526
H 1.2195478413022378 3.6409981134943052 2.625003684210526
H 0.026536502290796737 4.49196483153369 2.625003684210526
O 2.48898427174467 -3.246490535517007 1.8750036842105264
H 3.38898427174467 -3.246490535517007 1.8750036842105264
H 2.195972932733229 -2.3955238174776214 1.8750036842105264
O -4.290498664010132 0.7588745303155365 1.1250036842105264
H -3.390498664010132 0.7588745303155365 1.1250036842105264
H -4.583510003021573 1.6098412483549218 1.1250036842105264
O 3.783694813606101 2.406820513698853 0.3750036842105266
H 4.683694813606101 2.406820513698853 0.3750036842105266
H 3.4906834745946598 3.257787231738238 0.3750036842105266
O -1.164153356437414 -4.330656985440521 -0.37499631578947346
H -0.264153356437414 -4.330656985440521 -0.37499631578947346
H -1.457164695448855 -3.4796902674011356 -0.37499631578947346
O -2.0082182531440402 3.866652373628305 -1.1249963157894731
H -1.1082182531440403 3.866652373628305 -1.1249963157894731
H -2.3012295921554813 4.71761909166769 -1.1249963157894731
O 3.842547233358773 -1.4033458624937711 -1.8749963157894742
H 4.742547233358773 -1.4033458624937711 -1.8749963157894742
H 3.549535894347332 -0.552379144454386 -1.8749963157894742
O -3.378524633126039 -1.39466167847299 -2.6249963157894727
H -2.478524633126039 -1.39466167847299 -2.6249963157894727
H -3.67153597213748 -0.5436949604336048 -2.6249963157894727
O 1.2615676158024012 2.695836357134296 -3.3749963157894736
H 2.1615676158024013 2.695836357134296 -3.3749963157894736
H 0.9685562767909601 3.546803075173681 -3.3749963157894736
O 0.5382457534002592 -1.7160586243120741 -4.124996315789474
H 1.4382457534002593 -1.7160586243120741 -4.124996315789474
H 0.24523441438881816 -0.865091906272689 -4.124996315789474
