55
Molecule with added oxygen and hydrogen atoms
Fe         0.00054       -0.00030       -0.00075
O         -1.34774       -1.03442       -1.15847
H         -1.70939       -0.76083       -2.02409
O         -1.57212        0.65611        1.15130
H         -1.51689        1.11063        2.01462
O          0.21351       -1.68464        1.15888
H          0.71102       -2.48767        0.90700
O          1.34780        1.03250        1.15977
H          1.79489        1.86363        0.90455
O          1.57414       -0.65351       -1.15170
H          1.52086       -1.10117       -2.01893
O         -0.21690        1.68471       -1.15822
H         -0.71803        2.48459       -0.90344
H          0.20666        1.86349       -2.02056
H         -2.51457        0.62542        0.89314
H         -1.79130       -1.86724       -0.90256
H          2.51577       -0.62749       -0.88990
H         -0.21084       -1.85844        2.02183
H          1.70824        0.75682        2.02524
O 1.7982078738738492 0.00011526315789474402 4.125405789473684
H 2.6982078738738493 0.00011526315789474402 4.125405789473684
H 1.5051965348624081 0.85108198119728 4.125405789473684
O -2.194985457771606 -2.0104614849526654 3.375405789473684
H -1.294985457771606 -2.0104614849526654 3.375405789473684
H -2.487996796783047 -1.1594947669132802 3.375405789473684
O 0.31931626235486943 3.641168113494305 2.6254057894736835
H 1.2193162623548695 3.641168113494305 2.6254057894736835
H 0.026304923343428432 4.49213483153369 2.6254057894736835
O 2.488752692797302 -3.246320535517007 1.8754057894736842
H 3.388752692797302 -3.246320535517007 1.8754057894736842
H 2.195741353785861 -2.3953538174776217 1.8754057894736842
O -4.2907302429575 0.7590445303155365 1.1254057894736842
H -3.3907302429575004 0.7590445303155365 1.1254057894736842
H -4.583741581968941 1.6100112483549216 1.1254057894736842
O 3.7834632346587327 2.4069905136988528 0.3754057894736844
H 4.683463234658733 2.4069905136988528 0.3754057894736844
H 3.4904518956472916 3.2579572317382377 0.3754057894736844
O -1.1643849353847824 -4.330486985440521 -0.37459421052631564
H -0.26438493538478236 -4.330486985440521 -0.37459421052631564
H -1.4573962743962234 -3.479520267401136 -0.37459421052631564
O -2.0084498320914084 3.8668223736283047 -1.1245942105263154
H -1.1084498320914085 3.8668223736283047 -1.1245942105263154
H -2.3014611711028494 4.71778909166769 -1.1245942105263154
O 3.8423156544114048 -1.4031758624937711 -1.8745942105263165
H 4.742315654411405 -1.4031758624937711 -1.8745942105263165
H 3.5493043153999637 -0.552209144454386 -1.8745942105263165
O -3.378756212073407 -1.39449167847299 -2.624594210526315
H -2.478756212073407 -1.39449167847299 -2.624594210526315
H -3.671767551084848 -0.5435249604336048 -2.624594210526315
O 1.2613360368550328 2.6960063571342956 -3.374594210526316
H 2.1613360368550327 2.6960063571342956 -3.374594210526316
H 0.9683246978435918 3.546973075173681 -3.374594210526316
O 0.5380141744528909 -1.7158886243120741 -4.124594210526316
H 1.438014174452891 -1.7158886243120741 -4.124594210526316
H 0.2450028354414499 -0.864921906272689 -4.124594210526316
