55
Molecule with added oxygen and hydrogen atoms
  Fe         -0.78400649270196      0.71353105487946      0.03262609246935
  O          -1.33942641736777      2.76548564128770     -0.26406324295411
  H          -1.46493623163850      3.21327451637873     -1.10741817719586
  O           1.29394134712373      1.27206847491589      0.05174500282294
  H           2.04710560566938      0.67721876028357     -0.02653108518626
  O          -0.86324711300962      0.94326708610629      2.13832429437544
  H          -1.62320297483270      0.77161624672518      2.70500536714683
  O          -0.22383485616686     -1.33892187267020      0.32234510361851
  H          -0.06172975404982     -1.98609898473806     -0.37220586346964
  O          -2.86443663421683      0.15320423606988      0.01766328032653
  H          -3.22116982216479     -0.73653766210709     -0.07301997489960
  O          -0.70388564119294      0.48233176452798     -2.07337985333799
  H           0.05823268365900      0.65529099238317     -2.63675015932830
  H          -1.43654369565297      0.24280913439833     -2.65126970646751
  H           1.64892098616816      2.16297636880036      0.13823943511040
  H          -1.51462655063131      3.41158132309678      0.42832167759794
  H          -3.61625162041508      0.74948695538336      0.09741723738329
  H          -0.12927402984108      1.18693733452067      2.71283967976020
  H          -0.11314635873798     -1.79344160024203      1.16415630222783
O 1.013620107031747 0.7129515668421036 4.15679186368421
H 1.913620107031747 0.7129515668421036 4.15679186368421
H 0.7206087680203059 1.5639182848814888 4.15679186368421
O -2.9795732246137083 -1.2976251812684565 3.40679186368421
H -2.0795732246137084 -1.2976251812684565 3.40679186368421
H -3.2725845636251494 -0.4466584632290713 3.40679186368421
O -0.4652715044872327 4.354004417178514 2.6567918636842096
H 0.4347284955127673 4.354004417178514 2.6567918636842096
H -0.7582828434986737 5.204971135217899 2.6567918636842096
O 1.7041649259551999 -2.533484231832798 1.90679186368421
H 2.6041649259552 -2.533484231832798 1.90679186368421
H 1.4111535869437588 -1.6825175137934127 1.90679186368421
O -5.075318009799602 1.4718808339997453 1.15679186368421
H -4.175318009799602 1.4718808339997453 1.15679186368421
H -5.368329348811043 2.3228475520391303 1.15679186368421
O 2.9988754678166307 3.1198268173830614 0.4067918636842103
H 3.8988754678166306 3.1198268173830614 0.4067918636842103
H 2.7058641288051897 3.9707935354224464 0.4067918636842103
O -1.9489727022268846 -3.617650681756312 -0.3432081363157898
H -1.0489727022268847 -3.617650681756312 -0.3432081363157898
H -2.2419840412383256 -2.766683963716927 -0.3432081363157898
O -2.793037598933511 4.579658677312514 -1.0932081363157895
H -1.8930375989335109 4.579658677312514 -1.0932081363157895
H -3.086048937944952 5.430625395351899 -1.0932081363157895
O 3.0577278875693024 -0.6903395588095622 -1.8432081363157906
H 3.9577278875693023 -0.6903395588095622 -1.8432081363157906
H 2.7647165485578613 0.16062715922982296 -1.8432081363157906
O -4.163343978915509 -0.681655374788781 -2.593208136315789
H -3.263343978915509 -0.681655374788781 -2.593208136315789
H -4.45635531792695 0.16931134325060415 -2.593208136315789
O 0.47674827001293063 3.4088426608185047 -3.34320813631579
H 1.3767482700129308 3.4088426608185047 -3.34320813631579
H 0.18373693100148963 4.25980937885789 -3.34320813631579
O -0.24657359238921128 -1.0030523206278652 -4.09320813631579
H 0.6534264076107887 -1.0030523206278652 -4.09320813631579
H -0.5395849314006522 -0.15208560258848003 -4.09320813631579
