14

C -1.1421640452825892 -1.2727683035239703 -0.2610559057582464
C -1.9453167683483061 -0.16387200360980372 -0.11176434256536111
C -1.3528863309021748 1.080775326267108 0.12074057021943811
C 0.04763208318749175 1.312290642460763 0.22022003095829396
C 0.8752261612257319 0.1446061858533277 0.062030749824347156
C 0.23808492729267372 -1.1145644521937488 -0.17495403514659627
C 2.440778073773887 0.06895891726034126 0.11751028594480926
O 3.1857010196408555 1.0857317594213065 0.31762441742562225
O 2.9507912160557077 -1.1056248399448216 -0.05439109738270235
O 0.43512377031986776 2.511437173165391 0.436552880213831
H -1.5654426786184297 -2.251826416009558 -0.44198702842499
H -3.022769372170534 -0.2421031360042781 -0.17155906510141453
H -2.0088320959817665 1.9441260728202294 0.2356028167648942
H 0.8640740400755917 -1.9971669258971108 -0.29457027697349986
