64
Molecule with added oxygen and hydrogen atoms
Cu         0.00004        0.00009       -0.00003
O         -0.05466       -1.75126        1.00194
H         -0.84447       -2.11963        1.42324
O          0.38041        1.02004        1.68867
H          0.32098        1.98579        1.72594
O          2.24399       -0.19869       -0.23721
H          2.76831       -0.65059       -0.91144
O          0.05447        1.75147       -1.00202
H         -0.72548        2.23812       -1.30498
O         -0.38029       -1.01970       -1.68884
H         -0.32099       -1.98546       -1.72617
O         -2.24402        0.19787        0.23754
H         -2.76848        0.64956        0.91180
H         -2.87533       -0.17950       -0.38963
H          0.25747        0.67068        2.58277
H          0.72516       -2.23802        1.30504
H         -0.25704       -0.67030       -2.58288
H          2.87544        0.17875        0.38978
H          0.84416        2.12015       -1.42325
O 1.7950375672904488 -3.315789473684897e-05 4.666680877192983
H 2.695037567290449 -3.315789473684897e-05 4.666680877192983
H 1.5020262282790078 0.8509335601446483 4.666680877192983
O -2.212124002656013 -2.026504040679306 4.000014210526316
H -1.312124002656013 -2.026504040679306 4.000014210526316
H -2.505135341667454 -1.1755373226399206 4.000014210526316
O 0.3257990706611306 3.712477116422721 3.33334754385965
H 1.2257990706611306 3.712477116422721 3.33334754385965
H 0.03278773164968962 4.563443834462106 3.33334754385965
O 2.573390520296637 -3.3565880475359666 2.666680877192982
H 3.473390520296637 -3.3565880475359666 2.666680877192982
H 2.280379181285196 -2.5056213294965817 2.666680877192982
O -4.512541452722787 0.7981688144135175 2.000014210526316
H -3.612541452722787 0.7981688144135175 2.000014210526316
H -4.805552791734228 1.6491355324529027 2.000014210526316
O 4.065992229896686 2.586429323683189 1.3333475438596494
H 4.9659922298966865 2.586429323683189 1.3333475438596494
H 3.772980890885245 3.4373960417225744 1.3333475438596494
O -1.2864491830095213 -4.785495386558774 0.6666808771929829
H -0.38644918300952125 -4.785495386558774 0.6666808771929829
H -1.5794605220209623 -3.9345286685193894 0.6666808771929829
O -2.304552491987883 4.437208988331545 1.4210526316118612e-05
H -1.4045524919878831 4.437208988331545 1.4210526316118612e-05
H -2.597563830999324 5.28817570637093 1.4210526316118612e-05
O 4.65465428723716 -1.6999117810815771 -0.6666524561403507
H 5.5546542872371605 -1.6999117810815771 -0.6666524561403507
H 4.361642948225719 -0.848945063042192 -0.6666524561403507
O -4.454386930930664 -1.8387321606709275 -1.3333191228070171
H -3.5543869309306637 -1.8387321606709275 -1.3333191228070171
H -4.747398269942105 -0.9877654426315423 -1.3333191228070171
O 1.9422889868899265 4.150562705607103 -1.9999857894736832
H 2.8422889868899266 4.150562705607103 -1.9999857894736832
H 1.6492776478784854 5.001529423646488 -1.9999857894736832
O 1.2658114717836 -4.035694966841941 -2.666652456140352
H 2.1658114717836 -4.035694966841941 -2.666652456140352
H 0.9728001327721589 -3.184728248802556 -2.666652456140352
O -3.2244691682594597 1.8686025688877042 -3.3333191228070183
H -2.32446916825946 1.8686025688877042 -3.3333191228070183
H -3.517480507270901 2.719569286927089 -3.3333191228070183
O 2.930009952463489 0.6441251292289764 -3.9999857894736843
H 3.830009952463489 0.6441251292289764 -3.9999857894736843
H 2.636998613452048 1.4950918472683616 -3.9999857894736843
O -1.03240628887129 -1.468500160981226 -4.666652456140351
H -0.1324062888712899 -1.468500160981226 -4.666652456140351
H -1.325417627882731 -0.6175334429418409 -4.666652456140351
