97
Molecule with added oxygen and hydrogen atoms
Fe         0.02488        0.24274       -0.15318
C         -0.80103       -1.13855       -1.28956
C          1.46348        0.48355       -1.47812
C         -1.05185        1.63580       -1.03780
C          0.85537        1.60276        1.00614
C         -1.41192       -0.01985        1.16847
C          1.09048       -1.15250        0.73877
N         -1.29892       -1.97494       -1.95045
N          2.32745        0.61498       -2.26574
N         -1.70415        2.46737       -1.55477
N          1.35973        2.40185        1.70694
N         -2.27119       -0.19037        1.95401
N          1.72281       -1.99178        1.26853
H          2.30963       -3.50068        1.65792
H          1.95475       -4.87270        1.10909
H          3.33920        2.42159        3.81406
H          2.33337        3.07136        2.87905
H          4.84753       -0.64914       -2.91313
H          3.74204        0.37540       -3.10795
H         -2.96026        3.51017       -1.86980
H         -4.28468        3.70640       -1.15113
H         -2.34380       -3.18388       -2.42256
H         -3.54397       -3.78380       -1.71000
H         -2.82133       -1.99285        4.15115
H         -3.14323       -0.83974        3.21477
O          4.64203        0.08361       -3.50260
O          2.99403        3.30079        3.62833
O         -3.81739        4.07156       -1.90936
O         -3.07080       -3.89568       -2.54089
O         -3.53245       -1.36028        4.00687
O          2.54788       -4.49130        1.76445
O 2.2299648962015324 -0.16284225806451613 7.2968841038197
H 3.1299648962015323 -0.16284225806451613 7.2968841038197
H 1.9369535571900913 0.688124459974869 7.2968841038197
O -2.817412162436714 -2.7289788109436968 6.611809150767747
H -1.917412162436714 -2.7289788109436968 6.611809150767747
H -3.110423501448155 -1.8780120929043116 6.611809150767747
O 0.4019777827599749 4.602118321532436 5.926734197715794
H 1.301977782759975 4.602118321532436 5.926734197715794
H 0.10896644374853393 5.453085039571821 5.926734197715794
O 3.3378880644262003 -4.537660821670841 5.2416592446638415
H 4.2378880644262 -4.537660821670841 5.2416592446638415
H 3.0448767254147593 -3.6866941036314564 5.2416592446638415
O -6.0027072630739795 0.8960859566162869 4.556584291611888
H -5.102707263073979 0.8960859566162869 4.556584291611888
H -6.295718602085421 1.747052674655672 4.556584291611888
O 5.490325285240243 3.339960646728626 3.8715093385599357
H 6.390325285240244 3.339960646728626 3.8715093385599357
H 5.197313946228802 4.190927364768011 3.8715093385599357
O -1.8013444752828955 -6.803477526584352 3.1864343855079817
H -0.9013444752828955 -6.803477526584352 3.1864343855079817
H -2.0943558142943366 -5.952510808544967 3.1864343855079817
O -3.3090088302367033 6.177253940306952 2.501359432456029
H -2.4090088302367034 6.177253940306952 2.501359432456029
H -3.6020201692481444 7.028220658346337 2.501359432456029
O 6.877119083848573 -2.6802726274061 1.8162844794040756
H 7.777119083848573 -2.6802726274061 1.8162844794040756
H 6.584107744837132 -1.8293059093667148 1.8162844794040756
O -6.916841723798525 -3.011325383137713 1.1312095263521236
H -6.0168417237985246 -3.011325383137713 1.1312095263521236
H -7.209853062809966 -2.160358665098328 1.1312095263521236
O 3.174524155485113 6.655557513444412 0.44613457330016926
H 4.074524155485113 6.655557513444412 0.44613457330016926
H 2.881512816473672 7.506524231483797 0.44613457330016926
O 2.2368160124044922 -7.345823643468567 -0.23894037975178137
H 3.136816012404492 -7.345823643468567 -0.23894037975178137
H 1.9438046733930512 -6.494856925429182 -0.23894037975178137
O -6.475378327961511 3.5803815541970687 -0.9240153328037359
H -5.575378327961511 3.5803815541970687 -0.9240153328037359
H -6.768389666972952 4.431348272236454 -0.9240153328037359
O 7.1512494211709745 1.4129021710067076 -1.6090902858556877
H 8.051249421170974 1.4129021710067076 -1.6090902858556877
H 6.8582380821595335 2.2638688890460927 -1.6090902858556877
O -4.125034875477916 -6.007232008440349 -2.294165238907641
H -3.2250348754779163 -6.007232008440349 -2.294165238907641
H -4.418046214489357 -5.156265290400964 -2.294165238907641
O -0.8998934085794906 6.656531403011774 -2.9792401919595948
H 0.0001065914205093943 6.656531403011774 -2.9792401919595948
H -1.1929047475909316 7.507498121051159 -2.9792401919595948
O 4.97406053288187 -4.368642108817443 -3.6643151450115483
H 5.87406053288187 -4.368642108817443 -3.6643151450115483
H 4.681049193870429 -3.5176753907780585 -3.6643151450115483
O -6.090449156908798 -0.4140313843453805 -4.3493900980635
H -5.190449156908798 -0.4140313843453805 -4.3493900980635
H -6.3834604959202395 0.43693533369400467 -4.3493900980635
O 3.891302934031849 3.7256485933420977 -5.034465051115454
H 4.791302934031849 3.7256485933420977 -5.034465051115454
H 3.5982915950204077 4.576615311381483 -5.034465051115454
O -0.2371499621970973 -4.941012162228387 -5.719540004167405
H 0.6628500378029027 -4.941012162228387 -5.719540004167405
H -0.5301613012085383 -4.090045444189002 -5.719540004167405
O -2.4502091449481953 2.753909919162351 -6.4046149572193585
H -1.5502091449481954 2.753909919162351 -6.4046149572193585
H -2.7432204839596364 3.604876637201736 -6.4046149572193585
O 2.209905292891111 -0.4623620541526906 -7.0896899102713125
H 3.109905292891111 -0.4623620541526906 -7.0896899102713125
H 1.9168939538796699 0.38860466388669457 -7.0896899102713125
