199
Molecule with added oxygen and hydrogen atoms
Fe          -0.12686420587406       -0.26063717658594       -0.04496627135615
O           -2.00672964112442       -0.75202637098455        1.18820887079266
O            1.38150945608063        1.19743813577002        0.71175356674676
O            1.61425899195784       -0.64908470159621       -1.48925160847437
O           -1.25886625721143       -0.32375127491623       -2.10226425021708
O           -1.28587633281734        1.74895629095178       -0.19648556999689
O            1.00740572019214       -1.51564045940076        1.51865282539648
H           -2.26656454842601        1.72271408771725       -0.21940238074165
H           -1.01405328301457        2.49795801073965       -0.75943053062816
H            1.13072620416531       -1.05967541996158        2.39274530390714
H            1.90834349732261       -1.83015383526691        1.27333308020698
H           -2.58694328224023       -0.20202929273728        1.75231472621120
H           -2.54688450742473       -1.51162740004623        0.89007495068521
H            2.36004442258160        0.01227439595475       -1.47241617387233
H            2.03288813917157       -1.51123671644445       -1.67852366047218
H            1.56685993747248        2.07108364509404        0.29263085363903
H            2.23856715395684        0.91505741424016        1.13804895514413
H           -2.24000953103823       -0.45100348740301       -2.08886295360675
H           -0.91094082425098       -0.90880032931207       -2.78131781503534
O           -3.87783123891077        0.69945816694267        2.54356638808634
O            3.48305884668419       -2.24309869135298        0.78650675999583
O           -3.88610722216932       -0.59902997669673       -1.81866566847435
O           -0.52921886499217       -2.58351829534007       -0.54057859412759
O           -3.98963913663329        1.53841777166974       -0.09654620689976
O           -3.19749341349763       -2.70823089864868       -0.21368089599565
O            1.59132218509602       -0.17736895542731        3.68091466523665
O            3.63215679004909        0.36287878241820        1.74488744693706
O            1.98932044084267        3.38507583822912       -0.65152770452875
O           -0.51078364099050        3.93878335291121       -1.72251224051657
O            3.51953871976320        1.14213025686402       -1.37999351697470
O            3.12210017199768       -2.91253563008061       -1.88569854935468
H           -3.63744168662120       -2.14266837846184       -0.87383352186315
H           -3.74810197398942       -3.48676686852755       -0.08475601368600
H           -4.58632611024341        0.18989595537171        2.95298499710011
H           -3.59509657554854        1.33994360645570        3.20503563875677
H           -4.58289366982563        2.27758040703954       -0.26346369137870
H           -4.10362892499756        1.29428690114758        0.84056750238046
H           -0.86674286763155        4.79210347075500       -1.45024368799319
H           -0.57271352448716        3.91553399979991       -2.68330197795434
H           -4.49409252295397       -0.55691547129916       -2.56346306591845
H           -4.07705851104879        0.16657983544298       -1.24250060517920
H           -1.48845667851315       -2.79416176127243       -0.52610375596219
H           -0.12711259400208       -3.15593025223967        0.12078864562093
H            3.86306608232975       -2.78673851289635       -2.48887452146831
H            2.74732355110842       -3.77234991578676       -2.10324720182833
H            4.16190143252909        1.20612990210410       -2.09222380672163
H            3.12847320950147        2.02374298212465       -1.27255257905595
H            2.38538591249868        4.16332770915692       -0.24738509680342
H            1.17334186726271        3.67592421672651       -1.09702058281278
H            4.42595216468946        0.88563057683267        1.60260577214954
H            3.79688596671517       -0.51871206863283        1.37000507351026
H            1.55217741941718       -0.42384504010555        4.60960637692925
H            2.46564070078256        0.19631952962749        3.51174521810349
H            3.95501755949141       -2.91258292317854        1.29154075801445
H            3.48627502691075       -2.53279513755863       -0.14309367565245
O 2.163557836721721 0.001387454544117423 6.651109030303024
H 3.063557836721721 0.001387454544117423 6.651109030303024
H 1.8705464977102801 0.8523541725835025 6.651109030303024
O -2.629438207931967 -2.4341274374940625 5.984442363636358
H -1.7294382079319672 -2.4341274374940625 5.984442363636358
H -2.922449546943408 -1.5831607194546773 5.984442363636358
O 0.4255558963916301 4.517851132537198 5.317775696969691
H 1.32555589639163 4.517851132537198 5.317775696969691
H 0.1325445573801891 5.368817850576583 5.317775696969691
O 3.2037079486137534 -4.139218074849872 4.651109030303026
H 4.103707948613754 -4.139218074849872 4.651109030303026
H 2.9106966096023124 -3.2882513568104867 4.651109030303026
O -5.627565214374511 1.0019865803942727 3.984442363636358
H -4.72756521437451 1.0019865803942727 3.984442363636358
H -5.920576553385952 1.8529532984336579 3.984442363636358
O 5.222830301747301 3.3051606819704213 3.317775696969692
H 6.122830301747301 3.3051606819704213 3.317775696969692
H 4.92981896273586 4.156127400009806 3.317775696969692
O -1.65101818544198 -6.2488775446244365 2.6511090303030254
H -0.7510181854419801 -6.2488775446244365 2.6511090303030254
H -1.9440295244534211 -5.3979108265850515 2.6511090303030254
O -3.0626752247880162 5.954572497497534 1.9844423636363575
H -2.1626752247880163 5.954572497497534 1.9844423636363575
H -3.3556865637994573 6.8055392155369185 1.9844423636363575
O 6.484051292804827 -2.3559200600579144 1.3177756969696912
H 7.384051292804827 -2.3559200600579144 1.3177756969696912
H 6.191039953793386 -1.5049533420185293 1.3177756969696912
O -6.411824654821947 -2.6573669107492797 0.6511090303030252
H -5.511824654821947 -2.6573669107492797 0.6511090303030252
H -6.704835993833388 -1.8064001927098945 0.6511090303030252
O 2.996105056246222 6.341527362433377 -0.015557636363641608
H 3.896105056246222 6.341527362433377 -0.015557636363641608
H 2.703093717234781 7.192494080472762 -0.015557636363641608
O 2.1146474243107276 -6.647401462971029 -0.6822243030303086
H 3.0146474243107275 -6.647401462971029 -0.6822243030303086
H 1.8216360852992866 -5.796434744931644 -0.6822243030303086
O -5.916412252890884 3.446981486055422 -1.3488909696969746
H -5.016412252890883 3.446981486055422 -1.3488909696969746
H -6.209423591902325 4.297948204094808 -1.3488909696969746
O 6.580923356340194 1.441769172822568 -2.0155576363636425
H 7.4809233563401945 1.441769172822568 -2.0155576363636425
H 6.287912017328753 2.292735890861953 -2.0155576363636425
O -3.6931480979934737 -5.293245621411157 -2.6822243030303086
H -2.7931480979934737 -5.293245621411157 -2.6822243030303086
H -3.9861594370049147 -4.442278903371772 -2.6822243030303086
O -0.7618509799159728 6.105742783952798 -3.3488909696969764
H 0.13814902008402719 6.105742783952798 -3.3488909696969764
H -1.0548623189274138 6.956709501992183 -3.3488909696969764
O 4.421757147920328 -3.7006786110044976 -4.015557636363642
H 5.321757147920328 -3.7006786110044976 -4.015557636363642
H 4.128745808908887 -2.8497118929651126 -4.015557636363642
O -5.183853400248136 -0.21418797092886627 -4.682224303030309
H -4.283853400248136 -0.21418797092886627 -4.682224303030309
H -5.476864739259577 0.6367787471105189 -4.682224303030309
O 3.2428905490348843 3.1994556103458365 -5.348890969696975
H 4.142890549034885 3.1994556103458365 -5.348890969696975
H 2.949879210023443 4.050422328385221 -5.348890969696975
O -0.13736253591506561 -3.6003152753025836 -6.015557636363642
H 0.7626374640849344 -3.6003152753025836 -6.015557636363642
H -0.4303738749265066 -2.7493485572631986 -6.015557636363642
O -1.3383303275098224 1.64012556845835 -6.682224303030309
H -0.43833032750982237 1.64012556845835 -6.682224303030309
H -1.6313416665212634 2.491092286497735 -6.682224303030309
O 2.559580203763715 0.14357860308142484 8.651109030303026
H 3.459580203763715 0.14357860308142484 8.651109030303026
H 2.266568864752274 0.99454532112081 8.651109030303026
O -2.9073728620232284 -2.641539229238391 7.984442363636358
H -2.0073728620232285 -2.641539229238391 7.984442363636358
H -3.2003842010346695 -1.7905725111990056 7.984442363636358
O 0.5890199220519341 5.341092987125866 7.317775696969692
H 1.4890199220519342 5.341092987125866 7.317775696969692
H 0.2960085830404931 6.192059705165251 7.317775696969692
O 3.811570694897057 -4.6546260166614335 6.651109030303024
H 4.711570694897057 -4.6546260166614335 6.651109030303024
H 3.518559355885616 -3.8036592986220485 6.651109030303024
O -6.472781967241234 1.3120266475863573 5.98444236363636
H -5.572781967241234 1.3120266475863573 5.98444236363636
H -6.765793306252675 2.1629933656257423 5.98444236363636
O 6.249698684015366 4.034599922466271 5.317775696969691
H 7.149698684015366 4.034599922466271 5.317775696969691
H 5.956687345003925 4.885566640505656 5.317775696969691
O -1.8649333550577885 -7.2881759930884975 4.651109030303027
H -0.9649333550577884 -7.2881759930884975 4.651109030303027
H -2.1579446940692293 -6.4372092750491126 4.651109030303027
O -3.5830743239036895 7.298416577979369 3.984442363636358
H -2.6830743239036896 7.298416577979369 3.984442363636358
H -3.8760856629151306 8.149383296018755 3.984442363636358
O 7.985562994635801 -2.7242097613609078 3.317775696969691
H 8.885562994635801 -2.7242097613609078 3.317775696969691
H 7.69255165562436 -1.8732430433215226 3.317775696969691
O -7.81267237271706 -3.1362286362427443 2.6511090303030245
H -6.91267237271706 -3.1362286362427443 2.6511090303030245
H -8.105683711728501 -2.285261918203359 2.6511090303030245
O 3.8521104196211673 8.091364589197399 1.9844423636363582
H 4.752110419621167 8.091364589197399 1.9844423636363582
H 3.5590990806097262 8.942331307236785 1.9844423636363582
O 2.7967087937502817 -8.349137211259087 1.317775696969691
H 3.6967087937502816 -8.349137211259087 1.317775696969691
H 2.5036974547388406 -7.498170493219702 1.317775696969691
O -7.632631355165367 4.6438493705536334 0.6511090303030241
H -6.732631355165367 4.6438493705536334 0.6511090303030241
H -7.925642694176808 5.494816088593018 0.6511090303030241
O 8.922958869990502 2.076053464452565 -0.015557636363641691
H 9.822958869990503 2.076053464452565 -0.015557636363641691
H 8.629947530979061 2.92702018249195 -0.015557636363641691
O -5.029067694914309 -7.198756412351022 -0.6822243030303097
H -4.129067694914308 -7.198756412351022 -0.6822243030303097
H -5.32207903392575 -6.347789694311637 -0.6822243030303097
O -1.010956469268489 8.97046182587223 -1.3488909696969744
H -0.1109564692684889 8.97046182587223 -1.3488909696969744
H -1.30396780827993 9.821428543911615 -1.3488909696969744
O 6.842644611318734 -5.511420721286535 -2.0155576363636416
H 7.742644611318735 -5.511420721286535 -2.0155576363636416
H 6.549633272307293 -4.66045400324715 -2.0155576363636416
O -8.455647327319282 -0.2115838380814286 -2.6822243030303077
H -7.5556473273192815 -0.2115838380814286 -2.6822243030303077
H -8.748658666330723 0.6393828799579566 -2.6822243030303077
O 6.0586606639186735 6.0405249110547485 -3.348890969696976
H 6.958660663918674 6.0405249110547485 -3.348890969696976
H 5.7656493249072325 6.8914916290941335 -3.348890969696976
O -0.23953043560100495 -7.910073535602365 -4.015557636363641
H 0.6604695643989951 -7.910073535602365 -4.015557636363641
H -0.5325417746124459 -7.05910681756298 -4.015557636363641
O -4.797762842663613 6.05213289985634 -4.682224303030308
H -3.8977628426636133 6.05213289985634 -4.682224303030308
H -5.090774181675054 6.903099617895725 -4.682224303030308
O 7.317655483871927 -0.8231231925714853 -5.348890969696975
H 8.217655483871926 -0.8231231925714853 -5.348890969696975
H 7.024644144860486 0.02784352546789992 -5.348890969696975
O -5.373608216722691 -3.687690322289209 -6.015557636363643
H -4.473608216722691 -3.687690322289209 -6.015557636363643
H -5.666619555734132 -2.8367236042498236 -6.015557636363643
O 1.4598873948540183 6.042273265595757 -6.682224303030308
H 2.3598873948540184 6.042273265595757 -6.682224303030308
H 1.1668760558425773 6.893239983635142 -6.682224303030308
O 2.7269141189190123 -4.383362214639677 -7.348890969696976
H 3.626914118919012 -4.383362214639677 -7.348890969696976
H 2.433902779907571 -3.5323954966002917 -7.348890969696976
O -3.795176041808079 1.3967346303635928 -8.01555763636364
H -2.895176041808079 1.3967346303635928 -8.01555763636364
H -4.0881873808195195 2.2477013484029778 -8.01555763636364
O 2.3358166436732213 1.1613926366647926 -8.68222430303031
H 3.235816643673221 1.1613926366647926 -8.68222430303031
H 2.0428053046617802 2.012359354704178 -8.68222430303031
