55
Molecule with added oxygen and hydrogen atoms
Fe        -0.00003        0.00002        0.00001
O          1.26488        1.27599        0.95998
H          1.79579        1.07479        1.74957
O         -1.53177        0.62309        1.18944
H         -2.45143        0.30859        1.15602
O         -0.45145        1.46065       -1.34600
H          0.01074        1.63409       -2.18393
O         -1.26506       -1.27598       -0.95976
H         -1.44870       -2.19866       -0.71325
O          1.53179       -0.62296       -1.18942
H          2.45130       -0.30773       -1.15647
O          0.45167       -1.46082        1.34572
H         -0.01042       -1.63473        2.18360
H          1.16912       -2.11286        1.26859
H         -1.47832        1.29040        1.89488
H          1.44811        2.19887        0.71392
H          1.47855       -1.29090       -1.89436
H         -1.16870        2.11293       -1.26915
H         -1.79570       -1.07500       -1.74958
O 1.6897330841649587 -1.157894736842679e-05 3.8756160775502315
H 2.589733084164959 -1.157894736842679e-05 3.8756160775502315
H 1.3967217451535177 0.8509551390920167 3.8756160775502315
O -2.062054602822876 -1.8890403488609273 3.170956790722917
H -1.162054602822876 -1.8890403488609273 3.170956790722917
H -2.355065941834317 -1.0380736308215421 3.170956790722917
O 0.30024680647447527 3.4209240274774544 2.4662975038956017
H 1.2002468064744753 3.4209240274774544 2.4662975038956017
H 0.007235467463034273 4.271890745516839 2.4662975038956017
O 2.3385315103314888 -3.0501864251139295 1.7616382170682872
H 3.2385315103314887 -3.0501864251139295 1.7616382170682872
H 2.0455201713200477 -2.199219707074544 1.7616382170682872
O -4.0311026370910845 0.7130371625828722 1.0569789302409722
H -3.1311026370910846 0.7130371625828722 1.0569789302409722
H -4.324113976102526 1.5640038806222574 1.0569789302409722
O 3.554971253099332 2.26135775109064 0.3523196434136577
H 4.454971253099332 2.26135775109064 0.3523196434136577
H 3.2619599140878908 3.1123244691300256 0.3523196434136577
O -1.0937582973442659 -4.068810368320869 -0.35233964341365726
H -0.19375829734426586 -4.068810368320869 -0.35233964341365726
H -1.386769636355707 -3.217843650281484 -0.35233964341365726
O -1.8867958548766155 3.6329365208315467 -1.056998930240972
H -0.9867958548766155 3.6329365208315467 -1.056998930240972
H -2.1798071938880565 4.483903238870932 -1.056998930240972
O 3.610265791940638 -1.3184677440311054 -1.7616582170682877
H 4.510265791940638 -1.3184677440311054 -1.7616582170682877
H 3.317254452929197 -0.4675010259917203 -1.7616582170682877
O -3.174261343480662 -1.3103085561394243 -2.4663175038956013
H -2.2742613434806622 -1.3103085561394243 -2.4663175038956013
H -3.467272682492103 -0.45934183810003915 -2.4663175038956013
O 1.185317449776493 2.5329013485799923 -3.170976790722917
H 2.085317449776493 2.5329013485799923 -3.170976790722917
H 0.8923061107650518 3.3838680666193772 -3.170976790722917
O 0.5057234928339615 -1.6122756796640194 -3.875636077550232
H 1.4057234928339615 -1.6122756796640194 -3.875636077550232
H 0.21271215382252046 -0.7613089616246342 -3.875636077550232
