55
Molecule with added oxygen and hydrogen atoms
Fe        -0.00005        0.00001        0.00003
O          1.34995        0.02721        1.57692
H          1.42443        0.71035        2.26725
O          1.35503        1.04257       -1.17770
H          1.22657        1.32476       -2.10109
O          0.80775       -1.79501       -0.65994
H          0.52408       -2.69039       -0.40184
O         -1.35015       -0.02808       -1.57673
H         -2.03249        0.63958       -1.77018
O         -1.35505       -1.04211        1.17810
H         -1.22677       -1.32333        2.10180
O         -0.80741        1.79541        0.65929
H         -0.52319        2.69052        0.40088
H         -1.54369        1.90641        1.28727
H          2.24271        1.34474       -0.91407
H          2.03158       -0.64116        1.77044
H         -2.24255       -1.34483        0.91455
H          1.54381       -1.90534       -1.28830
H         -1.42420       -0.71144       -2.26689
O 1.7066550486811027 -6.842105263208562e-06 3.914429440780928
H 2.6066550486811026 -6.842105263208562e-06 3.914429440780928
H 1.4136437096696617 0.8509598759341219 3.914429440780928
O -2.082706812026235 -1.9079542452368063 3.2027129874331997
H -1.1827068120262352 -1.9079542452368063 3.2027129874331997
H -2.375718151037676 -1.0569875271974212 3.2027129874331997
O 0.3032530584997762 3.455189452685494 2.490996534085471
H 1.2032530584997763 3.455189452685494 2.490996534085471
H 0.010241719488335188 4.306156170724879 2.490996534085471
O 2.361951194550235 -3.080729205643932 1.7792800807377425
H 3.261951194550235 -3.080729205643932 1.7792800807377425
H 2.068939855538794 -2.229762487604547 1.7792800807377425
O -4.071474872872237 0.72018308637904 1.0675636273900138
H -3.171474872872237 0.72018308637904 1.0675636273900138
H -4.364486211883678 1.5711498044184253 1.0675636273900138
O 3.5905735878376124 2.2840101138486517 0.3558471740422856
H 4.490573587837613 2.2840101138486517 0.3558471740422856
H 3.2975622488261713 3.1349768318880367 0.3558471740422856
O -1.1047130138776131 -4.10955467308148 -0.35586927930544304
H -0.2047130138776131 -4.10955467308148 -0.35586927930544304
H -1.3977243528890542 -3.2585879550420946 -0.35586927930544304
O -1.9056928467834218 3.6693252522926616 -1.0675857326531715
H -1.0056928467834219 3.6693252522926616 -1.0675857326531715
H -2.198704185794863 4.520291970332047 -1.0675857326531715
O 3.646421901780684 -1.3316673527227902 -1.779302186000901
H 4.546421901780684 -1.3316673527227902 -1.779302186000901
H 3.353410562769243 -0.48070063468340507 -1.779302186000901
O -3.206052309130826 -1.3234264505208042 -2.491018639348628
H -2.306052309130826 -1.3234264505208042 -2.491018639348628
H -3.499063648142267 -0.47245973248141904 -2.491018639348628
O 1.1971876890206874 2.5582732219168864 -3.2027350926963574
H 2.0971876890206875 2.5582732219168864 -3.2027350926963574
H 0.9041763500092463 3.4092399399562714 -3.2027350926963574
O 0.5107875949703857 -1.6284177763999845 -3.914451546044086
H 1.4107875949703859 -1.6284177763999845 -3.914451546044086
H 0.21777625595894473 -0.7774510583605994 -3.914451546044086
