55
Molecule with added oxygen and hydrogen atoms
Fe         0.00001       -0.00001        0.00001
O          0.59330        1.60618       -1.09448
H          0.18979        1.92164       -1.92195
O          1.25571       -1.19042       -1.06584
H          1.38310       -2.14783       -0.94671
O          1.48385        0.36512        1.33964
H          1.42118        0.92781        2.13114
O         -0.59341       -1.60610        1.09455
H         -1.33424       -2.20265        0.88880
O         -1.25566        1.19041        1.06588
H         -1.38346        2.14778        0.94615
O         -1.48378       -0.36515       -1.33971
H         -1.42103       -0.92767       -2.13133
H         -2.38918       -0.00968       -1.30910
H          1.84109       -0.90926       -1.79064
H          1.33402        2.20283       -0.88867
H         -1.84089        0.90919        1.79091
H          2.38918        0.00948        1.30910
H         -0.18978       -1.92170        1.92191
O 1.6883211922047072 -1.5789473684313965e-06 3.872438594497187
H 2.5883211922047074 -1.5789473684313965e-06 3.872438594497187
H 1.3953098531932662 0.8509651390920168 3.872438594497187
O -2.060398184739898 -1.8874854517531359 3.1683555964546364
H -1.1603981847398983 -1.8874854517531359 3.1683555964546364
H -2.3534095237513393 -1.0365187337137507 3.1683555964546364
O 0.2999712727136905 3.418136296914278 2.4642725984120855
H 1.1999712727136904 3.418136296914278 2.4642725984120855
H 0.00695993370224951 4.2691030149536635 2.4642725984120855
O 2.3365890140585406 -3.047681912392285 1.760189600369535
H 3.2365890140585405 -3.047681912392285 1.760189600369535
H 2.0435776750470995 -2.1967151943529 1.760189600369535
O -4.027835880054199 0.7124640126827494 1.056106602326984
H -3.127835880054199 0.7124640126827494 1.056106602326984
H -4.32084721906564 1.5634307307221347 1.056106602326984
O 3.552033920606662 2.259518344139689 0.3520236042844336
H 4.452033920606662 2.259518344139689 0.3520236042844336
H 3.2590225815952207 3.110485062179074 0.3520236042844336
O -1.0928937772914527 -4.065472798311347 -0.3520593937581173
H -0.19289377729145263 -4.065472798311347 -0.3520593937581173
H -1.3859051163028937 -3.2145060802719616 -0.3520593937581173
O -1.8852827679790223 3.6299754009092378 -1.0561423918006678
H -0.9852827679790223 3.6299754009092378 -1.0561423918006678
H -2.1782941069904633 4.480942118948623 -1.0561423918006678
O 3.607283238128689 -1.317379476114476 -1.7602253898432196
H 4.507283238128689 -1.317379476114476 -1.7602253898432196
H 3.314271899117248 -0.46641275807509075 -1.7602253898432196
O -3.17169533365177 -1.309226961019936 -2.4643083878857692
H -2.27169533365177 -1.309226961019936 -2.4643083878857692
H -3.464706672663211 -0.4582602429805509 -2.4643083878857692
O 1.1843180821076142 2.530839866176787 -3.1683913859283206
H 2.084318082107614 2.530839866176787 -3.1683913859283206
H 0.8913067430961732 3.3818065842161724 -3.1683913859283206
O 0.5052799148678521 -1.6109471279374052 -3.8724743839708715
H 1.405279914867852 -1.6109471279374052 -3.8724743839708715
H 0.21226857585641107 -0.7599804098980201 -3.8724743839708715
