55
Molecule with added oxygen and hydrogen atoms
Fe         0.00005       -0.00003        0.00001
O         -0.29045        1.85715       -0.86395
H          0.21181        2.67084       -0.65326
O         -1.37577        0.47002        1.47155
H         -1.64380       -0.11256        2.21150
O         -1.51779       -0.78129       -1.16861
H         -1.40933       -1.17706       -2.05763
O          0.29018       -1.85749        0.86332
H          0.95399       -2.07161        1.55053
O          1.37614       -0.46916       -1.47149
H          1.64609        0.11509       -2.20942
O          1.51758        0.78084        1.16915
H          1.40859        1.17743        2.05774
H          2.46575        0.81555        0.92723
H         -1.86791        1.31326        1.54563
H         -0.95334        2.07032       -1.55234
H          1.86671       -1.31314       -1.54756
H         -2.46566       -0.81719       -0.92571
H         -0.21331       -2.67057        0.65318
O 1.7016526638677945 2.1052631578921677e-05 3.9030600852498343
H 2.6016526638677946 2.1052631578921677e-05 3.9030600852498343
H 1.4086413248563534 0.8509877706709641 3.9030600852498343
O -2.076699051836519 -1.9023827317222364 3.193411553003453
H -1.1766990518365192 -1.9023827317222364 3.193411553003453
H -2.36971039084796 -1.0514160136828512 3.193411553003453
O 0.302328315246555 3.445178134061895 2.4837630207570713
H 1.2023283152465551 3.445178134061895 2.4837630207570713
H 0.009316976235114016 4.29614485210128 2.4837630207570713
O 2.355044820133623 -3.0717501467840918 1.7741144885106903
H 3.255044820133623 -3.0717501467840918 1.7741144885106903
H 2.062033481122182 -2.2207834287447064 1.7741144885106903
O -4.059688666196756 0.718118439987902 1.0644659562643088
H -3.159688666196756 0.718118439987902 1.0644659562643088
H -4.352700005208197 1.569085158027287 1.0644659562643088
O 3.5800974010881315 2.2774017044269557 0.35481742401792776
H 4.480097401088131 2.2774017044269557 0.35481742401792776
H 3.2870860620766904 3.128368422466341 0.35481742401792776
O -1.101546854444301 -4.097586319982748 -0.3548311082284537
H -0.20154685444430098 -4.097586319982748 -0.3548311082284537
H -1.394558193455742 -3.2466196019433626 -0.3548311082284537
O -1.900199407869035 3.6586917533942094 -1.064479640474835
H -1.0001994078690348 3.6586917533942094 -1.064479640474835
H -2.193210746880476 4.509658471433594 -1.064479640474835
O 3.6357834454836406 -1.3277702642125238 -1.7741281727212173
H 4.5357834454836405 -1.3277702642125238 -1.7741281727212173
H 3.3427721064721996 -0.4768035461731386 -1.7741281727212173
O -3.1967806229118056 -1.3195533062870506 -2.4837767049675974
H -2.2967806229118057 -1.3195533062870506 -2.4837767049675974
H -3.4897919619232467 -0.4685865882476654 -2.4837767049675974
O 1.193665582341366 2.5508679298801717 -3.1934252372139795
H 2.093665582341366 2.5508679298801717 -3.1934252372139795
H 0.9006542433299249 3.401834647919557 -3.1934252372139795
O 0.5092598516808338 -1.6236584674646184 -3.903073769460361
H 1.409259851680834 -1.6236584674646184 -3.903073769460361
H 0.21624851266939277 -0.7726917494252332 -3.903073769460361
