55
Molecule with added oxygen and hydrogen atoms
Fe         0.00001        0.00002       -0.00001
O         -1.86152        0.33187       -0.89441
H         -2.03598        0.85182       -1.70302
O         -0.25086        1.72179        1.16081
H          0.37652        2.07730        1.82008
O         -0.92069       -1.14053        1.49211
H         -1.08319       -2.10380        1.47327
O          1.86130       -0.33220        0.89472
H          2.72547        0.00254        0.58523
O          0.25100       -1.72152       -1.16117
H         -0.37647       -2.07708       -1.82032
O          0.92075        1.14057       -1.49205
H          1.08325        2.10383       -1.47316
H          1.27176        0.81371       -2.34327
H         -1.01823        2.32651        1.14950
H         -2.72552       -0.00295       -0.58453
H          1.01851       -2.32605       -1.15014
H         -1.27165       -0.81363        2.34335
H          2.03541       -0.85241        1.70324
O 1.713572967250422 -1.1052631578937971e-05 3.930379094029338
H 2.613572967250422 -1.1052631578937971e-05 3.930379094029338
H 1.420561628238981 0.8509556654078062 3.930379094029338
O -2.0912064874066782 -1.9157212293963306 3.215766914253669
H -1.1912064874066783 -1.9157212293963306 3.215766914253669
H -2.3842178264181193 -1.0647545113569454 3.215766914253669
O 0.30446102303771544 3.469243232778175 2.501154734478
H 1.2044610230377155 3.469243232778175 2.501154734478
H 0.011449684026274443 4.32020995081756 2.501154734478
O 2.371535284962 -3.0932678027553613 1.7865425547023308
H 3.271535284962 -3.0932678027553613 1.7865425547023308
H 2.078523945950559 -2.242301084715976 1.7865425547023308
O -4.088066153000255 0.7231090779005189 1.0719303749266615
H -3.1880661530002548 0.7231090779005189 1.0719303749266615
H -4.381077492011696 1.574075795939904 1.0719303749266615
O 3.6051565149595124 2.2932987730179994 0.3573181951509928
H 4.505156514959513 2.2932987730179994 0.3573181951509928
H 3.3121451759480713 3.144265491057385 0.3573181951509928
O -1.1092335730322895 -4.126279202781348 -0.35729398462467643
H -0.2092335730322895 -4.126279202781348 -0.35729398462467643
H -1.4022449120437306 -3.2753124847419635 -0.35729398462467643
O -1.9134723139758185 3.684250276391539 -1.0719061644003454
H -1.0134723139758184 3.684250276391539 -1.0719061644003454
H -2.2064836529872593 4.535216994430924 -1.0719061644003454
O 3.6612320562455523 -1.337089626180631 -1.7865183441760155
H 4.561232056245553 -1.337089626180631 -1.7865183441760155
H 3.368220717234111 -0.4861229081412459 -1.7865183441760155
O -3.2191224861884087 -1.3288151946170799 -2.5011305239516832
H -2.3191224861884088 -1.3288151946170799 -2.5011305239516832
H -3.5121338251998497 -0.4778484765776947 -2.5011305239516832
O 1.2020327623008435 2.5686777621741403 -3.215742703727353
H 2.1020327623008437 2.5686777621741403 -3.215742703727353
H 0.9090214232894025 3.4196444802135257 -3.215742703727353
O 0.5128399452733885 -1.6350474240028274 -3.930354883503022
H 1.4128399452733884 -1.6350474240028274 -3.930354883503022
H 0.2198286062619475 -0.7840807059634423 -3.930354883503022
