55
Molecule with added oxygen and hydrogen atoms
Fe         0.00004        0.00002       -0.00002
O         -1.43046        0.13437       -1.45413
H         -2.35414       -0.17422       -1.38745
O          0.56021       -1.82939       -0.71982
H          1.26899       -2.39887       -0.36459
O          1.34912        0.90203       -1.24303
H          1.51554        1.86092       -1.31850
O          1.43017       -0.13445        1.45442
H          1.31648       -0.51931        2.34427
O         -0.56004        1.82952        0.71963
H         -1.26844        2.39921        0.36402
O         -1.34907       -0.90212        1.24296
H         -1.51548       -1.86101        1.31834
H         -1.94645       -0.45423        1.87175
H          0.16887       -2.29597       -1.48272
H         -1.31701        0.51864       -2.34430
H         -0.16909        2.29590        1.48288
H          1.94653        0.45407       -1.87174
H          2.35374        0.17463        1.38847
O 1.693895877101424 -1.3684210526326554e-05 3.885301079304151
H 2.593895877101424 -1.3684210526326554e-05 3.885301079304151
H 1.400884538089983 0.8509530338288589 3.885301079304151
O -2.067235247107397 -1.893746883903398 3.178886911775167
H -1.167235247107397 -1.893746883903398 3.178886911775167
H -2.360246586118838 -1.0427801658640128 3.178886911775167
O 0.3009492282790531 3.4294414067220487 2.4724727442461822
H 1.200949228279053 3.4294414067220487 2.4724727442461822
H 0.00793788926761213 4.280408124761434 2.4724727442461822
O 2.3443100683031095 -3.057784673753492 1.766058576717198
H 3.2443100683031094 -3.057784673753492 1.766058576717198
H 2.0512987292916685 -2.206817955714107 1.766058576717198
O -4.041186990814468 0.714810831086204 1.0596444091882133
H -3.1411869908144685 0.714810831086204 1.0596444091882133
H -4.3341983298259095 1.5657775491255892 1.0596444091882133
O 3.5637792277964997 2.2669873510654823 0.35323024165922934
H 4.4637792277965 2.2669873510654823 0.35323024165922934
H 3.2707678887850586 3.1179540691048677 0.35323024165922934
O -1.0965275003382977 -4.078945394000923 -0.35318392586975517
H -0.1965275003382977 -4.078945394000923 -0.35318392586975517
H -1.3895388393497388 -3.2279786759615376 -0.35318392586975517
O -1.8915400354682304 3.641981895151286 -1.0595980933987394
H -0.9915400354682303 3.641981895151286 -1.0595980933987394
H -2.184551374479671 4.492948613190671 -1.0595980933987394
O 3.6192114719387005 -1.32175332731457 -1.766012260927725
H 4.519211471938701 -1.32175332731457 -1.766012260927725
H 3.3262001329272595 -0.4707866092751849 -1.766012260927725
O -3.182211823034417 -1.3135738198136253 -2.472426428456708
H -2.2822118230344173 -1.3135738198136253 -2.472426428456708
H -3.4752231620458582 -0.46260710177424014 -2.472426428456708
O 1.1882240480115525 2.5392071996563303 -3.178840595985693
H 2.0882240480115524 2.5392071996563303 -3.178840595985693
H 0.8952127090001114 3.3901739176957157 -3.178840595985693
O 0.5069376329657875 -1.6162929610686585 -3.8852547635146775
H 1.4069376329657874 -1.6162929610686585 -3.8852547635146775
H 0.21392629395434654 -0.7653262430292733 -3.8852547635146775
