202
Molecule with added oxygen and hydrogen atoms
C            1.86448664831421       -1.51114322760606       -0.97124751007144
C            0.44366502152505       -1.50183185923809       -0.49608550304927
C           -0.27288382320299       -0.34209877649561       -0.24041114813820
C           -1.67282789426971       -0.49125998200324        0.21931533479729
O           -2.36260283599846        0.53194149675846        0.44977526119517
C           -2.15344695719982       -1.82804963831053        0.37483121666158
C           -1.34391708104276       -2.88119259187065        0.09694272241409
O           -0.08781584326625       -2.75868276716565       -0.32541496426519
O            0.20376712165134        0.83428297636649       -0.38515393216226
H            2.51227774396088       -2.03128693349818       -0.26400207160967
H            1.95216966709150       -2.00654656462710       -1.93953561397058
H            2.18314106362371       -0.47683535276832       -1.06193623807447
H           -3.16442336935536       -1.99349799024721        0.71347538291674
H           -1.64078809000748       -3.91560308033612        0.19155526216236
Fe          -1.33954001041281        2.27437427959974        0.15825088638514
C            1.14504692796063        6.34812557156401       -1.60137818394796
C            0.22478014865475        5.36731028847203       -2.26159179006667
C           -0.36927213846669        4.30489209556715       -1.59645794082004
C           -1.24955276561263        3.41150340890753       -2.38363614970316
O           -1.80921084063003        2.43880234644786       -1.82071784029109
C           -1.40112203105578        3.72594562039475       -3.76952281041385
C           -0.75987842686710        4.79772544273066       -4.30046836567164
O            0.03124486662786        5.60895219311593       -3.60178820345869
O           -0.20092832021695        4.06102780812459       -0.35368640173613
H            2.13308571411331        6.33299478917197       -2.06420217460873
H            0.75348590793700        7.36436124714120       -1.67036202808456
H            1.22951505211431        6.06117480659185       -0.55720703709220
H           -2.02907336769043        3.10547984108525       -4.38982584121993
H           -0.82925504307343        5.09428415232614       -5.33697854485648
C           -0.79957906050861        2.69515029465154        5.19514997050651
C           -1.80085324578162        3.26893162973339        4.23999477708669
C           -1.77916996490088        3.03441299587846        2.87317811835400
C           -2.83173138565588        3.67501266245879        2.05179816986115
O           -2.85323259808367        3.48314817333013        0.81146688624006
C           -3.77344547796885        4.49315372281105        2.74908455941167
C           -3.68185496906177        4.64404084123542        4.09467046018779
O           -2.74398537021368        4.06778851546979        4.84325758615450
O           -0.91001514766377        2.29968610106769        2.29273664093427
H           -0.26453626172944        3.48515664325401        5.72403017240093
H           -1.28226971917201        2.05729167114671        5.93703656289899
H           -0.09642411309056        2.10677295436624        4.61316772497345
H           -4.55845461377480        4.98815666770351        2.19879096555670
H           -4.35867860759427        5.24385074669083        4.68557205220166
O 1.348064689080927 2.3132024004650322 7.7574837895550015
H 2.248064689080927 2.3132024004650322 7.7574837895550015
H 1.0550533500694859 3.164169118504417 7.7574837895550015
O -3.76120673198513 -0.28565352170516656 7.080001056931583
H -2.86120673198513 -0.28565352170516656 7.080001056931583
H -4.054218070996571 0.5653131963342186 7.080001056931583
O -0.5002633658883869 7.144670071707581 6.402518324308167
H 0.3997366341116131 7.144670071707581 6.402518324308167
H -0.7932747048998279 7.995636789746966 6.402518324308167
O 2.4811057532513234 -2.1285222119817853 5.725035591684748
H 3.3811057532513233 -2.1285222119817853 5.725035591684748
H 2.1880944142398824 -1.2775554939424 5.725035591684748
O -7.011238523669216 3.389899395235476 5.047552859061331
H -6.111238523669216 3.389899395235476 5.047552859061331
H -7.304249862680657 4.240866113274861 5.047552859061331
O 4.683810281852915 5.88061132450132 4.370070126437914
H 5.583810281852915 5.88061132450132 4.370070126437914
H 4.3907989428414735 6.731578042540705 4.370070126437914
O -2.745695898108645 -4.462368460308117 3.6925873938144957
H -1.8456958981086449 -4.462368460308117 3.6925873938144957
H -3.038707237120086 -3.6114017422687317 3.6925873938144957
O -4.2910095366657295 8.795632410157108 3.015104661191078
H -3.3910095366657296 8.795632410157108 3.015104661191078
H -4.5840208756771705 9.646599128196494 3.015104661191078
O 6.140615991146555 -0.2668868235901285 2.3376219285676623
H 7.040615991146556 -0.2668868235901285 2.3376219285676623
H 5.847604652135114 0.5840798944492567 2.3376219285676623
O -8.016159790245315 -0.6142218736730536 1.6601391959442438
H -7.116159790245314 -0.6142218736730536 1.6601391959442438
H -8.309171129256756 0.23674484436633159 1.6601391959442438
O 2.3654160664582946 9.343094969516732 0.982656463320827
H 3.2654160664582945 9.343094969516732 0.982656463320827
H 2.0724047274468536 10.194061687556118 0.982656463320827
O 1.4074545021017975 -5.12073932890526 0.30517373069740816
H 2.3074545021017974 -5.12073932890526 0.30517373069740816
H 1.1144431630903564 -4.269772610865875 0.30517373069740816
O -7.639652682397936 6.204897278507362 -0.37230900192600896
H -6.739652682397936 6.204897278507362 -0.37230900192600896
H -7.932664021409377 7.055863996546747 -0.37230900192600896
O 6.569091204895385 3.9605993639095525 -1.0497917345494276
H 7.469091204895386 3.9605993639095525 -1.0497917345494276
H 6.276079865883944 4.811566081948937 -1.0497917345494276
O -5.249990329707732 -3.839673313376929 -1.727274467172846
H -4.349990329707731 -3.839673313376929 -1.727274467172846
H -5.543001668719173 -2.9887065953375442 -1.727274467172846
O -1.8629969270842355 9.55720474478011 -2.4047571997962613
H -0.9629969270842355 9.55720474478011 -2.4047571997962613
H -2.1560082660956765 10.408171462819496 -2.4047571997962613
O 4.440586060303378 -2.208313639204662 -3.082239932419679
H 5.340586060303378 -2.208313639204662 -3.082239932419679
H 4.147574721291937 -1.3573469211652769 -3.082239932419679
O -7.565191211041077 2.038579933506119 -3.7597226650430984
H -6.665191211041076 2.038579933506119 -3.7597226650430984
H -7.858202550052518 2.889546651545504 -3.7597226650430984
O 3.457312015370958 6.673473147148576 -4.437205397666515
H 4.357312015370958 6.673473147148576 -4.437205397666515
H 3.1643006763595167 7.524439865187961 -4.437205397666515
O -1.1828115774267358 -3.2777493883065567 -5.114688130289932
H -0.2828115774267358 -3.2777493883065567 -5.114688130289932
H -1.4758229164381769 -2.4267826702671718 -5.114688130289932
O -4.031745349255697 6.036982670028184 -5.792170862913352
H -3.1317453492556973 6.036982670028184 -5.792170862913352
H -4.324756688267138 6.887949388067569 -5.792170862913352
O 2.8887216627551173 1.8001682210127201 -6.46965359553677
H 3.7887216627551172 1.8001682210127201 -6.46965359553677
H 2.5957103237436763 2.6511349390521053 -6.46965359553677
O -2.7895557710105257 1.0153931299773906 -7.147136328160186
H -1.8895557710105257 1.0153931299773906 -7.147136328160186
H -3.0825671100219667 1.8663598480167758 -7.147136328160186
O 1.7896245524427365 2.4543819574384558 10.041098783936944
H 2.6896245524427367 2.4543819574384558 10.041098783936944
H 1.4966132134312955 3.305348675477841 10.041098783936944
O -4.026246108369089 -0.5111075560068397 9.369655676816976
H -3.1262461083690893 -0.5111075560068397 9.369655676816976
H -4.31925744738053 0.3398591620325455 9.369655676816976
O -0.30237533293980745 8.000377082745437 8.698212569697008
H 0.5976246670601926 8.000377082745437 8.698212569697008
H -0.5953866719512484 8.851343800784823 8.698212569697008
O 3.1453401524636364 -2.677400635093204 8.02676946257704
H 4.045340152463637 -2.677400635093204 8.02676946257704
H 2.8523288134521954 -1.8264339170538186 8.02676946257704
O -7.871746272157264 3.707202067867493 7.355326355457072
H -6.971746272157263 3.707202067867493 7.355326355457072
H -8.164757611168705 4.5581687859068785 7.355326355457072
O 5.787327098482909 6.637767598980078 6.6838832483371045
H 6.68732709848291 6.637767598980078 6.6838832483371045
H 5.494315759471468 7.488734317019463 6.6838832483371045
O -2.9434291009960134 -5.5596088489130615 6.012440141217137
H -2.0434291009960135 -5.5596088489130615 6.012440141217137
H -3.2364404400074545 -4.708642130873677 6.012440141217137
O -4.809271811396789 10.194975006492628 5.340997034097169
H -3.909271811396789 10.194975006492628 5.340997034097169
H -5.10228315040823 11.045941724532014 5.340997034097169
O 7.737030945848549 -0.6593479849265775 4.669553926977201
H 8.637030945848549 -0.6593479849265775 4.669553926977201
H 7.444019606837108 0.19161873311280764 4.669553926977201
O -9.45038625886063 -1.120870428839845 3.9981108198572337
H -8.55038625886063 -1.120870428839845 3.9981108198572337
H -9.743397597872072 -0.26990371080045983 3.9981108198572337
O 3.283099862459773 11.15644001770076 3.3266677127372666
H 4.183099862459773 11.15644001770076 3.3266677127372666
H 2.990088523448332 12.007406735740146 3.3266677127372666
O 2.141975905883653 -6.890355103037205 2.655224605617298
H 3.041975905883653 -6.890355103037205 2.655224605617298
H 1.848964566872212 -6.03938838499782 2.655224605617298
O -9.381321627405377 7.433749072858658 1.98378149849733
H -8.481321627405377 7.433749072858658 1.98378149849733
H -9.674332966416818 8.284715790898044 1.98378149849733
O 8.99832436621523 4.606120107071517 1.3123383913773623
H 9.898324366215231 4.606120107071517 1.3123383913773623
H 8.70531302720379 5.457086825110902 1.3123383913773623
O -6.578383044459416 -5.780275116676359 0.6408952842573943
H -5.678383044459416 -5.780275116676359 0.6408952842573943
H -6.871394383470857 -4.929308398636974 0.6408952842573943
O -2.0826966206788824 12.43696521097576 -0.030547822862574403
H -1.1826966206788825 12.43696521097576 -0.030547822862574403
H -2.3757079596903234 13.287931929015146 -0.030547822862574403
O 6.8735697067327175 -4.003725558396807 -0.7019909299825424
H 7.773569706732718 -4.003725558396807 -0.7019909299825424
H 6.5805583677212764 -3.1527588403574223 -0.7019909299825424
O -10.711398762354836 2.044063819563151 -1.373434037102508
H -9.811398762354836 2.044063819563151 -1.373434037102508
H -11.004410101366277 2.895030537602536 -1.373434037102508
O 6.152916368077223 9.3626170689497 -2.0448771442224762
H 7.0529163680772236 9.3626170689497 -2.0448771442224762
H 5.859905029065782 10.213583786989085 -2.0448771442224762
O -1.2328969656564173 -7.143101316307096 -2.7163202513424443
H -0.33289696565641724 -7.143101316307096 -2.7163202513424443
H -1.5259083046678583 -6.292134598267711 -2.7163202513424443
O -6.792661913621706 9.648653634440988 -3.3877633584624114
H -5.892661913621706 9.648653634440988 -3.3877633584624114
H -7.085673252633147 10.499620352480374 -3.3877633584624114
O 8.206743814959678 1.2440036759735202 -4.05920646558238
H 9.106743814959678 1.2440036759735202 -4.05920646558238
H 7.913732475948237 2.0949703940129054 -4.05920646558238
O -7.948875797162497 -2.527202421142946 -4.730649572702349
H -7.048875797162497 -2.527202421142946 -4.730649572702349
H -8.241887136173938 -1.6762357031035606 -4.730649572702349
O 1.0322654800973146 10.550541376426414 -5.402092679822315
H 1.9322654800973145 10.550541376426414 -5.402092679822315
H 0.7392541410858735 11.4015080944658 -5.402092679822315
O 3.0860439353994584 -4.308263760020257 -6.0735357869422835
H 3.9860439353994583 -4.308263760020257 -6.0735357869422835
H 2.7930325963880174 -3.4572970419808717 -6.0735357869422835
O -7.641434308179474 4.640462976796471 -6.744978894062249
H -6.741434308179474 4.640462976796471 -6.744978894062249
H -7.934445647190915 5.491429694835856 -6.744978894062249
O 5.081087792686437 5.1665583628231495 -7.41642200118222
H 5.981087792686437 5.1665583628231495 -7.41642200118222
H 4.788076453674996 6.0175250808625345 -7.41642200118222
O -2.9384241793344357 -2.6813143929289134 -8.087865108302186
H -2.0384241793344358 -2.6813143929289134 -8.087865108302186
H -3.2314355183458767 -1.8303476748895282 -8.087865108302186
O -2.274950790067959 6.58542113634714 -8.759308215422156
H -1.3749507900679592 6.58542113634714 -8.759308215422156
H -2.5679621290794 7.436387854386525 -8.759308215422156
O 1.4935595485211166 1.2546792156016866 -9.430751322542122
H 2.3935595485211167 1.2546792156016866 -9.430751322542122
H 1.2005482095096756 2.105645933641072 -9.430751322542122
