 xtb: 6.6.0 (conda-forge)
          10292412163D

313228  0     0  0            999 V2000
    2.1490   -1.6407   -0.8691 C   0  0  0  0  0  0  0  0  0  0  0  0
    0.7802   -1.7520   -0.2713 C   0  0  0  0  0  0  0  0  0  0  0  0
    0.0149   -0.6501    0.0879 C   0  0  0  0  0  0  0  0  0  0  0  0
   -1.3192   -0.9105    0.6787 C   0  0  0  0  0  0  0  0  0  0  0  0
   -2.0579    0.0481    1.0102 O   0  0  0  0  0  0  0  0  0  0  0  0
   -1.6896   -2.2849    0.8244 C   0  0  0  0  0  0  0  0  0  0  0  0
   -0.8523   -3.2750    0.4248 C   0  0  0  0  0  0  0  0  0  0  0  0
    0.3494   -3.0487   -0.1030 O   0  0  0  0  0  0  0  0  0  0  0  0
    0.4013    0.5564   -0.0710 O   0  0  0  0  0  0  0  0  0  0  0  0
    2.9084   -2.0435   -0.1992 H   0  0  0  0  0  0  0  0  0  0  0  0
    2.2193   -2.1827   -1.8123 H   0  0  0  0  0  0  0  0  0  0  0  0
    2.3438   -0.5856   -1.0340 H   0  0  0  0  0  0  0  0  0  0  0  0
   -2.6456   -2.5372    1.2545 H   0  0  0  0  0  0  0  0  0  0  0  0
   -1.0890   -4.3276    0.4816 H   0  0  0  0  0  0  0  0  0  0  0  0
   -1.1933    1.9151    0.6344 Fe  0  0  0  0  0  0  0  0  0  0  0  0
    1.0268    6.0471   -1.3606 C   0  0  0  0  0  0  0  0  0  0  0  0
    0.1021    5.0308   -1.9588 C   0  0  0  0  0  0  0  0  0  0  0  0
   -0.4379    3.9725   -1.2380 C   0  0  0  0  0  0  0  0  0  0  0  0
   -1.3271    3.0385   -1.9691 C   0  0  0  0  0  0  0  0  0  0  0  0
   -1.8415    2.0606   -1.3746 O   0  0  0  0  0  0  0  0  0  0  0  0
   -1.5422    3.3249   -3.3537 C   0  0  0  0  0  0  0  0  0  0  0  0
   -0.9447    4.3935   -3.9416 C   0  0  0  0  0  0  0  0  0  0  0  0
   -0.1451    5.2315   -3.2921 O   0  0  0  0  0  0  0  0  0  0  0  0
   -0.2086    3.7781    0.0023 O   0  0  0  0  0  0  0  0  0  0  0  0
    2.0341    5.9482   -1.7659 H   0  0  0  0  0  0  0  0  0  0  0  0
    0.6777    7.0586   -1.5651 H   0  0  0  0  0  0  0  0  0  0  0  0
    1.0550    5.8731   -0.2894 H   0  0  0  0  0  0  0  0  0  0  0  0
   -2.1802    2.6813   -3.9375 H   0  0  0  0  0  0  0  0  0  0  0  0
   -1.0614    4.6608   -4.9824 H   0  0  0  0  0  0  0  0  0  0  0  0
   -0.1110    2.6672    5.5802 C   0  0  0  0  0  0  0  0  0  0  0  0
   -1.2750    3.0827    4.7333 C   0  0  0  0  0  0  0  0  0  0  0  0
   -1.4014    2.7552    3.3886 C   0  0  0  0  0  0  0  0  0  0  0  0
   -2.5918    3.2747    2.6736 C   0  0  0  0  0  0  0  0  0  0  0  0
   -2.7460    3.0398    1.4509 O   0  0  0  0  0  0  0  0  0  0  0  0
   -3.5179    4.0358    3.4534 C   0  0  0  0  0  0  0  0  0  0  0  0
   -3.2833    4.2669    4.7700 C   0  0  0  0  0  0  0  0  0  0  0  0
   -2.2064    3.8274    5.4129 O   0  0  0  0  0  0  0  0  0  0  0  0
   -0.5522    2.0460    2.7529 O   0  0  0  0  0  0  0  0  0  0  0  0
    0.2674    3.5114    6.1548 H   0  0  0  0  0  0  0  0  0  0  0  0
   -0.3901    1.8781    6.2799 H   0  0  0  0  0  0  0  0  0  0  0  0
    0.6623    2.2966    4.9150 H   0  0  0  0  0  0  0  0  0  0  0  0
   -4.4079    4.4282    2.9886 H   0  0  0  0  0  0  0  0  0  0  0  0
   -3.9448    4.8251    5.4154 H   0  0  0  0  0  0  0  0  0  0  0  0
    3.4308    3.4012    9.9231 O   0  0  0  0  0  0  0  0  0  0  0  0
    3.1749    2.5496    9.5553 H   0  0  0  0  0  0  0  0  0  0  0  0
    2.8800    3.5184   10.7163 H   0  0  0  0  0  0  0  0  0  0  0  0
   -3.3208   -0.4357    7.3446 O   0  0  0  0  0  0  0  0  0  0  0  0
   -2.8840   -1.2914    7.3997 H   0  0  0  0  0  0  0  0  0  0  0  0
   -3.9589   -0.4912    6.6263 H   0  0  0  0  0  0  0  0  0  0  0  0
   -0.2465    8.8502    5.8521 O   0  0  0  0  0  0  0  0  0  0  0  0
   -0.1224    8.0319    5.3628 H   0  0  0  0  0  0  0  0  0  0  0  0
    0.0611    8.6698    6.7582 H   0  0  0  0  0  0  0  0  0  0  0  0
    2.1205   -2.6581    5.0197 O   0  0  0  0  0  0  0  0  0  0  0  0
    2.4707   -3.0913    4.2357 H   0  0  0  0  0  0  0  0  0  0  0  0
    1.4212   -2.0664    4.7267 H   0  0  0  0  0  0  0  0  0  0  0  0
   -7.5180    3.6788    6.4025 O   0  0  0  0  0  0  0  0  0  0  0  0
   -7.3742    2.7445    6.5810 H   0  0  0  0  0  0  0  0  0  0  0  0
   -8.0368    3.7342    5.5932 H   0  0  0  0  0  0  0  0  0  0  0  0
    4.4972    5.4578    4.0799 O   0  0  0  0  0  0  0  0  0  0  0  0
    4.7388    6.3413    4.4107 H   0  0  0  0  0  0  0  0  0  0  0  0
    3.6866    5.5649    3.5743 H   0  0  0  0  0  0  0  0  0  0  0  0
   -4.1784   -4.9526    3.8996 O   0  0  0  0  0  0  0  0  0  0  0  0
   -4.9182   -4.4680    4.2789 H   0  0  0  0  0  0  0  0  0  0  0  0
   -4.5499   -5.6792    3.3896 H   0  0  0  0  0  0  0  0  0  0  0  0
   -3.8192    9.9373    3.0002 O   0  0  0  0  0  0  0  0  0  0  0  0
   -3.6152    9.0015    2.9152 H   0  0  0  0  0  0  0  0  0  0  0  0
   -3.3120   10.2498    3.7751 H   0  0  0  0  0  0  0  0  0  0  0  0
    7.0389    0.0484    0.6935 O   0  0  0  0  0  0  0  0  0  0  0  0
    6.4809    0.1183    1.4884 H   0  0  0  0  0  0  0  0  0  0  0  0
    6.6340    0.6271    0.0405 H   0  0  0  0  0  0  0  0  0  0  0  0
   -7.2013    0.1542    0.9416 O   0  0  0  0  0  0  0  0  0  0  0  0
   -6.6590   -0.5323    0.5412 H   0  0  0  0  0  0  0  0  0  0  0  0
   -6.6425    0.9345    1.0142 H   0  0  0  0  0  0  0  0  0  0  0  0
    1.0586   10.7217    0.6375 O   0  0  0  0  0  0  0  0  0  0  0  0
    0.6051   10.2170    1.3193 H   0  0  0  0  0  0  0  0  0  0  0  0
    1.8073   11.1533    1.0861 H   0  0  0  0  0  0  0  0  0  0  0  0
    2.7564   -4.9262   -0.1417 O   0  0  0  0  0  0  0  0  0  0  0  0
    3.2248   -4.6888   -0.9659 H   0  0  0  0  0  0  0  0  0  0  0  0
    1.9545   -4.3902   -0.1420 H   0  0  0  0  0  0  0  0  0  0  0  0
   -6.9607    6.1444   -0.0401 O   0  0  0  0  0  0  0  0  0  0  0  0
   -6.7785    5.3419   -0.5382 H   0  0  0  0  0  0  0  0  0  0  0  0
   -6.2484    6.7623   -0.2291 H   0  0  0  0  0  0  0  0  0  0  0  0
    7.0768    5.3372   -0.8454 O   0  0  0  0  0  0  0  0  0  0  0  0
    7.7152    5.7414   -0.2321 H   0  0  0  0  0  0  0  0  0  0  0  0
    6.2700    5.2075   -0.3380 H   0  0  0  0  0  0  0  0  0  0  0  0
   -6.5200   -5.0248   -1.9346 O   0  0  0  0  0  0  0  0  0  0  0  0
   -5.7500   -4.5519   -1.6041 H   0  0  0  0  0  0  0  0  0  0  0  0
   -7.0347   -4.3790   -2.4453 H   0  0  0  0  0  0  0  0  0  0  0  0
   -2.6554   10.5533   -2.3515 O   0  0  0  0  0  0  0  0  0  0  0  0
   -2.8823   10.0064   -1.5938 H   0  0  0  0  0  0  0  0  0  0  0  0
   -1.8825   11.0808   -2.0742 H   0  0  0  0  0  0  0  0  0  0  0  0
    6.5842   -3.2367   -2.4893 O   0  0  0  0  0  0  0  0  0  0  0  0
    7.0186   -3.0296   -1.6366 H   0  0  0  0  0  0  0  0  0  0  0  0
    6.8108   -2.5134   -3.0816 H   0  0  0  0  0  0  0  0  0  0  0  0
   -7.5174    2.0861   -3.9072 O   0  0  0  0  0  0  0  0  0  0  0  0
   -6.6297    1.8636   -3.6098 H   0  0  0  0  0  0  0  0  0  0  0  0
   -7.4236    2.8900   -4.4425 H   0  0  0  0  0  0  0  0  0  0  0  0
    4.4778    5.7171   -6.1311 O   0  0  0  0  0  0  0  0  0  0  0  0
    4.7525    6.4369   -5.5543 H   0  0  0  0  0  0  0  0  0  0  0  0
    3.5169    5.6853   -6.1045 H   0  0  0  0  0  0  0  0  0  0  0  0
   -2.4858   -2.0812   -4.6550 O   0  0  0  0  0  0  0  0  0  0  0  0
   -1.5596   -1.8349   -4.5719 H   0  0  0  0  0  0  0  0  0  0  0  0
   -2.9332   -1.7345   -3.8770 H   0  0  0  0  0  0  0  0  0  0  0  0
   -5.9204    6.9661   -4.9761 O   0  0  0  0  0  0  0  0  0  0  0  0
   -4.9870    7.1120   -4.7954 H   0  0  0  0  0  0  0  0  0  0  0  0
   -6.2831    7.8033   -5.2823 H   0  0  0  0  0  0  0  0  0  0  0  0
    2.8418    0.6690   -6.1075 O   0  0  0  0  0  0  0  0  0  0  0  0
    3.7011    0.9973   -5.8246 H   0  0  0  0  0  0  0  0  0  0  0  0
    2.2266    0.8255   -5.3848 H   0  0  0  0  0  0  0  0  0  0  0  0
   -3.1427    1.0842   -7.4095 O   0  0  0  0  0  0  0  0  0  0  0  0
   -2.2811    1.1904   -7.8242 H   0  0  0  0  0  0  0  0  0  0  0  0
   -3.6902    1.8191   -7.7031 H   0  0  0  0  0  0  0  0  0  0  0  0
    1.6783    3.3741   12.1353 O   0  0  0  0  0  0  0  0  0  0  0  0
    1.8727    2.6899   12.8000 H   0  0  0  0  0  0  0  0  0  0  0  0
    0.7221    3.3762   12.0261 H   0  0  0  0  0  0  0  0  0  0  0  0
   -3.7791    1.0591    9.6783 O   0  0  0  0  0  0  0  0  0  0  0  0
   -3.6246    0.5273    8.8778 H   0  0  0  0  0  0  0  0  0  0  0  0
   -3.7259    1.9785    9.4009 H   0  0  0  0  0  0  0  0  0  0  0  0
    0.6773    8.0697    8.3679 O   0  0  0  0  0  0  0  0  0  0  0  0
    1.3125    7.3608    8.5073 H   0  0  0  0  0  0  0  0  0  0  0  0
    0.0784    8.0472    9.1338 H   0  0  0  0  0  0  0  0  0  0  0  0
    2.8191   -3.5304    7.6076 O   0  0  0  0  0  0  0  0  0  0  0  0
    2.9692   -4.4704    7.4712 H   0  0  0  0  0  0  0  0  0  0  0  0
    2.5505   -3.1725    6.7449 H   0  0  0  0  0  0  0  0  0  0  0  0
   -7.8294    5.4415    8.5746 O   0  0  0  0  0  0  0  0  0  0  0  0
   -7.6420    4.8352    7.8374 H   0  0  0  0  0  0  0  0  0  0  0  0
   -8.5717    5.9845    8.2935 H   0  0  0  0  0  0  0  0  0  0  0  0
    5.1435    7.9766    5.1609 O   0  0  0  0  0  0  0  0  0  0  0  0
    5.5752    7.8789    6.0272 H   0  0  0  0  0  0  0  0  0  0  0  0
    4.4744    8.6592    5.2700 H   0  0  0  0  0  0  0  0  0  0  0  0
   -1.8553   -5.4313    5.4109 O   0  0  0  0  0  0  0  0  0  0  0  0
   -1.2457   -5.8835    4.8195 H   0  0  0  0  0  0  0  0  0  0  0  0
   -2.6341   -5.2025    4.8748 H   0  0  0  0  0  0  0  0  0  0  0  0
   -2.4095   10.5644    5.3011 O   0  0  0  0  0  0  0  0  0  0  0  0
   -1.6181   10.0269    5.4834 H   0  0  0  0  0  0  0  0  0  0  0  0
   -3.0115   10.4026    6.0465 H   0  0  0  0  0  0  0  0  0  0  0  0
    5.3640    0.4359    2.8854 O   0  0  0  0  0  0  0  0  0  0  0  0
    5.6686    0.5202    3.8041 H   0  0  0  0  0  0  0  0  0  0  0  0
    4.5134    0.8832    2.8332 H   0  0  0  0  0  0  0  0  0  0  0  0
   -8.8658   -0.4613    3.1022 O   0  0  0  0  0  0  0  0  0  0  0  0
   -8.2647   -0.2685    2.3600 H   0  0  0  0  0  0  0  0  0  0  0  0
   -9.7242   -0.1092    2.8499 H   0  0  0  0  0  0  0  0  0  0  0  0
    3.0935   11.8844    2.1534 O   0  0  0  0  0  0  0  0  0  0  0  0
    3.9592   12.2210    1.9066 H   0  0  0  0  0  0  0  0  0  0  0  0
    2.8043   12.3983    2.9290 H   0  0  0  0  0  0  0  0  0  0  0  0
    3.1411   -7.3352    1.1956 O   0  0  0  0  0  0  0  0  0  0  0  0
    3.7982   -7.7580    0.6339 H   0  0  0  0  0  0  0  0  0  0  0  0
    2.9550   -6.4726    0.7813 H   0  0  0  0  0  0  0  0  0  0  0  0
   -9.1007    6.5461    1.7696 O   0  0  0  0  0  0  0  0  0  0  0  0
   -8.3220    6.3788    1.2126 H   0  0  0  0  0  0  0  0  0  0  0  0
   -9.8383    6.6635    1.1634 H   0  0  0  0  0  0  0  0  0  0  0  0
    8.6873    6.4314    1.1953 O   0  0  0  0  0  0  0  0  0  0  0  0
    8.9770    5.7849    1.8625 H   0  0  0  0  0  0  0  0  0  0  0  0
    8.3509    7.1895    1.6835 H   0  0  0  0  0  0  0  0  0  0  0  0
   -7.5618   -6.9463   -0.2369 O   0  0  0  0  0  0  0  0  0  0  0  0
   -6.8618   -7.6022   -0.1723 H   0  0  0  0  0  0  0  0  0  0  0  0
   -7.2462   -6.2810   -0.8781 H   0  0  0  0  0  0  0  0  0  0  0  0
   -0.5313   12.0115   -1.2807 O   0  0  0  0  0  0  0  0  0  0  0  0
    0.0787   11.5364   -0.6881 H   0  0  0  0  0  0  0  0  0  0  0  0
   -0.8360   12.7820   -0.7712 H   0  0  0  0  0  0  0  0  0  0  0  0
    7.8227   -2.4954   -0.1521 O   0  0  0  0  0  0  0  0  0  0  0  0
    7.7825   -3.0617    0.6355 H   0  0  0  0  0  0  0  0  0  0  0  0
    7.5795   -1.6026    0.1586 H   0  0  0  0  0  0  0  0  0  0  0  0
  -11.8486    2.7751   -0.6834 O   0  0  0  0  0  0  0  0  0  0  0  0
  -10.9199    2.5438   -0.7875 H   0  0  0  0  0  0  0  0  0  0  0  0
  -12.1582    3.0948   -1.5361 H   0  0  0  0  0  0  0  0  0  0  0  0
    5.5218    9.8737   -2.4623 O   0  0  0  0  0  0  0  0  0  0  0  0
    6.2280   10.3436   -1.9880 H   0  0  0  0  0  0  0  0  0  0  0  0
    4.9681    9.4743   -1.7848 H   0  0  0  0  0  0  0  0  0  0  0  0
   -1.4240   -6.8671   -3.0117 O   0  0  0  0  0  0  0  0  0  0  0  0
   -0.6889   -6.4003   -3.4222 H   0  0  0  0  0  0  0  0  0  0  0  0
   -2.1793   -6.7801   -3.6020 H   0  0  0  0  0  0  0  0  0  0  0  0
   -7.9194   11.5468   -2.8795 O   0  0  0  0  0  0  0  0  0  0  0  0
   -7.0156   11.8613   -2.9772 H   0  0  0  0  0  0  0  0  0  0  0  0
   -8.0921   11.5256   -1.9240 H   0  0  0  0  0  0  0  0  0  0  0  0
    8.4752    1.6770   -4.6039 O   0  0  0  0  0  0  0  0  0  0  0  0
    9.2415    1.6603   -4.0076 H   0  0  0  0  0  0  0  0  0  0  0  0
    7.8164    2.2284   -4.1709 H   0  0  0  0  0  0  0  0  0  0  0  0
   -7.7970   -2.9677   -3.3850 O   0  0  0  0  0  0  0  0  0  0  0  0
   -7.5026   -2.6804   -4.2546 H   0  0  0  0  0  0  0  0  0  0  0  0
   -8.6167   -2.5026   -3.1922 H   0  0  0  0  0  0  0  0  0  0  0  0
    1.8382   10.2072   -5.9345 O   0  0  0  0  0  0  0  0  0  0  0  0
    1.5219   10.0237   -5.0441 H   0  0  0  0  0  0  0  0  0  0  0  0
    2.5391   10.8610   -5.8538 H   0  0  0  0  0  0  0  0  0  0  0  0
    4.0031   -4.2179   -2.5121 O   0  0  0  0  0  0  0  0  0  0  0  0
    4.0113   -4.8533   -3.2342 H   0  0  0  0  0  0  0  0  0  0  0  0
    4.9148   -3.8720   -2.4481 H   0  0  0  0  0  0  0  0  0  0  0  0
   -7.0636    4.4138   -5.4931 O   0  0  0  0  0  0  0  0  0  0  0  0
   -6.6503    5.2500   -5.2237 H   0  0  0  0  0  0  0  0  0  0  0  0
   -7.2820    4.5121   -6.4244 H   0  0  0  0  0  0  0  0  0  0  0  0
    6.0714    4.6251   -8.2061 O   0  0  0  0  0  0  0  0  0  0  0  0
    6.9709    4.7944   -7.9094 H   0  0  0  0  0  0  0  0  0  0  0  0
    5.4867    4.9688   -7.5107 H   0  0  0  0  0  0  0  0  0  0  0  0
   -3.9106   -1.6514   -7.0981 O   0  0  0  0  0  0  0  0  0  0  0  0
   -3.4314   -1.9232   -6.2985 H   0  0  0  0  0  0  0  0  0  0  0  0
   -3.7110   -0.7066   -7.1994 H   0  0  0  0  0  0  0  0  0  0  0  0
   -1.0603    5.7787   -7.1772 O   0  0  0  0  0  0  0  0  0  0  0  0
   -0.7215    5.4959   -8.0418 H   0  0  0  0  0  0  0  0  0  0  0  0
   -0.9953    6.7383   -7.1760 H   0  0  0  0  0  0  0  0  0  0  0  0
    2.1182    0.2161   -8.8421 O   0  0  0  0  0  0  0  0  0  0  0  0
    2.3268    0.2873   -7.8971 H   0  0  0  0  0  0  0  0  0  0  0  0
    2.5188    0.9849   -9.2592 H   0  0  0  0  0  0  0  0  0  0  0  0
    2.1403    1.2077   13.8689 O   0  0  0  0  0  0  0  0  0  0  0  0
    2.9632    0.7278   13.7315 H   0  0  0  0  0  0  0  0  0  0  0  0
    1.4380    0.5509   13.9219 H   0  0  0  0  0  0  0  0  0  0  0  0
   -2.7393    0.0091   12.0769 O   0  0  0  0  0  0  0  0  0  0  0  0
   -3.0737    0.4342   11.2675 H   0  0  0  0  0  0  0  0  0  0  0  0
   -3.2316   -0.8130   12.1597 H   0  0  0  0  0  0  0  0  0  0  0  0
   -1.0583    7.8434   10.5600 O   0  0  0  0  0  0  0  0  0  0  0  0
   -1.6711    7.1012   10.5648 H   0  0  0  0  0  0  0  0  0  0  0  0
   -1.5227    8.5960   10.9387 H   0  0  0  0  0  0  0  0  0  0  0  0
    2.4870   -2.0819   10.0228 O   0  0  0  0  0  0  0  0  0  0  0  0
    1.5559   -1.8491    9.9508 H   0  0  0  0  0  0  0  0  0  0  0  0
    2.6964   -2.5793    9.2159 H   0  0  0  0  0  0  0  0  0  0  0  0
   -6.1145    5.9676   10.7641 O   0  0  0  0  0  0  0  0  0  0  0  0
   -6.6725    5.8212    9.9819 H   0  0  0  0  0  0  0  0  0  0  0  0
   -6.3350    5.2599   11.3767 H   0  0  0  0  0  0  0  0  0  0  0  0
    6.2977    7.5938    7.6985 O   0  0  0  0  0  0  0  0  0  0  0  0
    7.2445    7.5556    7.8622 H   0  0  0  0  0  0  0  0  0  0  0  0
    5.8897    6.8972    8.2223 H   0  0  0  0  0  0  0  0  0  0  0  0
   -2.1790   -6.0203    8.1544 O   0  0  0  0  0  0  0  0  0  0  0  0
   -1.3585   -5.6771    8.5215 H   0  0  0  0  0  0  0  0  0  0  0  0
   -2.1333   -5.8425    7.1987 H   0  0  0  0  0  0  0  0  0  0  0  0
   -4.3349    9.9012    7.2836 O   0  0  0  0  0  0  0  0  0  0  0  0
   -4.5246    8.9658    7.4100 H   0  0  0  0  0  0  0  0  0  0  0  0
   -5.1772   10.3651    7.3047 H   0  0  0  0  0  0  0  0  0  0  0  0
    6.0886    0.7262    5.6115 O   0  0  0  0  0  0  0  0  0  0  0  0
    5.7805    0.0531    6.2264 H   0  0  0  0  0  0  0  0  0  0  0  0
    5.9600    1.5794    6.0381 H   0  0  0  0  0  0  0  0  0  0  0  0
   -8.3763   -1.7552    5.5747 O   0  0  0  0  0  0  0  0  0  0  0  0
   -8.4720   -1.2841    4.7300 H   0  0  0  0  0  0  0  0  0  0  0  0
   -9.0337   -2.4568    5.5609 H   0  0  0  0  0  0  0  0  0  0  0  0
    2.1369   13.2379    4.4084 O   0  0  0  0  0  0  0  0  0  0  0  0
    2.1797   12.7496    5.2369 H   0  0  0  0  0  0  0  0  0  0  0  0
    1.2299   13.5459    4.3123 H   0  0  0  0  0  0  0  0  0  0  0  0
    3.4726   -7.6384    3.9600 O   0  0  0  0  0  0  0  0  0  0  0  0
    3.1433   -8.5299    4.1054 H   0  0  0  0  0  0  0  0  0  0  0  0
    3.3356   -7.4589    3.0115 H   0  0  0  0  0  0  0  0  0  0  0  0
   -8.8955    8.2091    4.0396 O   0  0  0  0  0  0  0  0  0  0  0  0
   -9.0156    7.6103    3.2813 H   0  0  0  0  0  0  0  0  0  0  0  0
   -7.9552    8.1870    4.2417 H   0  0  0  0  0  0  0  0  0  0  0  0
    9.3014    4.5560    3.2181 O   0  0  0  0  0  0  0  0  0  0  0  0
    8.9820    3.6696    3.0214 H   0  0  0  0  0  0  0  0  0  0  0  0
    9.0867    4.7308    4.1402 H   0  0  0  0  0  0  0  0  0  0  0  0
   -9.0399   -5.9148    1.9300 O   0  0  0  0  0  0  0  0  0  0  0  0
   -8.5660   -6.3419    1.1944 H   0  0  0  0  0  0  0  0  0  0  0  0
   -9.1049   -4.9838    1.6948 H   0  0  0  0  0  0  0  0  0  0  0  0
   -1.6532   14.1176    0.2591 O   0  0  0  0  0  0  0  0  0  0  0  0
   -2.1062   13.7785    1.0383 H   0  0  0  0  0  0  0  0  0  0  0  0
   -2.2787   14.6793   -0.2088 H   0  0  0  0  0  0  0  0  0  0  0  0
    7.5340   -3.9634    2.2660 O   0  0  0  0  0  0  0  0  0  0  0  0
    7.8739   -3.6431    3.1070 H   0  0  0  0  0  0  0  0  0  0  0  0
    6.6403   -4.2832    2.4256 H   0  0  0  0  0  0  0  0  0  0  0  0
  -13.3580    2.6809    1.7638 O   0  0  0  0  0  0  0  0  0  0  0  0
  -12.8999    2.6263    0.9105 H   0  0  0  0  0  0  0  0  0  0  0  0
  -13.0607    3.5017    2.1691 H   0  0  0  0  0  0  0  0  0  0  0  0
    7.6109   11.2502   -1.1168 O   0  0  0  0  0  0  0  0  0  0  0  0
    8.4855   10.8511   -1.1681 H   0  0  0  0  0  0  0  0  0  0  0  0
    7.7097   12.1855   -1.3211 H   0  0  0  0  0  0  0  0  0  0  0  0
   -1.7621   -6.5761   -0.2138 O   0  0  0  0  0  0  0  0  0  0  0  0
   -1.4622   -7.4004    0.1804 H   0  0  0  0  0  0  0  0  0  0  0  0
   -1.6637   -6.6907   -1.1743 H   0  0  0  0  0  0  0  0  0  0  0  0
   -8.2703   11.4464   -0.0439 O   0  0  0  0  0  0  0  0  0  0  0  0
   -7.5713   11.1344    0.5403 H   0  0  0  0  0  0  0  0  0  0  0  0
   -9.1067   11.2243    0.3763 H   0  0  0  0  0  0  0  0  0  0  0  0
   10.5177    1.6499   -2.6176 O   0  0  0  0  0  0  0  0  0  0  0  0
   10.7125    0.7969   -2.2169 H   0  0  0  0  0  0  0  0  0  0  0  0
   10.5163    2.3018   -1.9088 H   0  0  0  0  0  0  0  0  0  0  0  0
  -11.9953   -5.9119   -2.9331 O   0  0  0  0  0  0  0  0  0  0  0  0
  -11.2043   -6.3549   -3.2568 H   0  0  0  0  0  0  0  0  0  0  0  0
  -11.9206   -5.8757   -1.9744 H   0  0  0  0  0  0  0  0  0  0  0  0
    3.7302   15.0708   -1.9563 O   0  0  0  0  0  0  0  0  0  0  0  0
    3.5905   14.1793   -2.2917 H   0  0  0  0  0  0  0  0  0  0  0  0
    2.9572   15.2917   -1.4274 H   0  0  0  0  0  0  0  0  0  0  0  0
    8.0264   -8.1663   -1.4878 O   0  0  0  0  0  0  0  0  0  0  0  0
    8.2214   -7.4568   -0.8672 H   0  0  0  0  0  0  0  0  0  0  0  0
    7.5853   -7.7616   -2.2414 H   0  0  0  0  0  0  0  0  0  0  0  0
  -11.3691    7.4138   -3.2383 O   0  0  0  0  0  0  0  0  0  0  0  0
  -10.4962    7.0437   -3.4057 H   0  0  0  0  0  0  0  0  0  0  0  0
  -11.2843    8.3698   -3.3032 H   0  0  0  0  0  0  0  0  0  0  0  0
    9.9622    7.1983   -4.7768 O   0  0  0  0  0  0  0  0  0  0  0  0
   10.0429    6.3025   -4.4340 H   0  0  0  0  0  0  0  0  0  0  0  0
    9.1341    7.5527   -4.4374 H   0  0  0  0  0  0  0  0  0  0  0  0
   -4.2097   -6.7826   -7.8493 O   0  0  0  0  0  0  0  0  0  0  0  0
   -3.4486   -6.2340   -8.0641 H   0  0  0  0  0  0  0  0  0  0  0  0
   -4.8971   -6.1912   -7.5266 H   0  0  0  0  0  0  0  0  0  0  0  0
   -3.5937   11.1950   -7.3317 O   0  0  0  0  0  0  0  0  0  0  0  0
   -2.6886   11.0682   -7.0302 H   0  0  0  0  0  0  0  0  0  0  0  0
   -4.0491   11.6916   -6.6448 H   0  0  0  0  0  0  0  0  0  0  0  0
    7.7963   -0.5473   -9.3386 O   0  0  0  0  0  0  0  0  0  0  0  0
    8.5316   -0.3646   -8.7457 H   0  0  0  0  0  0  0  0  0  0  0  0
    7.0010   -0.2331   -8.8963 H   0  0  0  0  0  0  0  0  0  0  0  0
   -9.0225    0.2031   -8.5600 O   0  0  0  0  0  0  0  0  0  0  0  0
   -8.1684    0.0680   -8.1368 H   0  0  0  0  0  0  0  0  0  0  0  0
   -9.5647    0.7030   -7.9418 H   0  0  0  0  0  0  0  0  0  0  0  0
    5.4383    9.6693  -10.1348 O   0  0  0  0  0  0  0  0  0  0  0  0
    5.8476    9.0126  -10.7069 H   0  0  0  0  0  0  0  0  0  0  0  0
    4.9227    9.1864   -9.4807 H   0  0  0  0  0  0  0  0  0  0  0  0
    1.4648   -4.7869   -7.3920 O   0  0  0  0  0  0  0  0  0  0  0  0
    2.3145   -4.3628   -7.5473 H   0  0  0  0  0  0  0  0  0  0  0  0
    0.7905   -4.1917   -7.7343 H   0  0  0  0  0  0  0  0  0  0  0  0
   -5.7443    7.0715  -10.0451 O   0  0  0  0  0  0  0  0  0  0  0  0
   -4.8987    6.7461   -9.7199 H   0  0  0  0  0  0  0  0  0  0  0  0
   -5.6920    8.0322  -10.0461 H   0  0  0  0  0  0  0  0  0  0  0  0
    5.3682    4.3417  -10.9314 O   0  0  0  0  0  0  0  0  0  0  0  0
    5.9179    3.6016  -11.2062 H   0  0  0  0  0  0  0  0  0  0  0  0
    5.5541    4.4724   -9.9853 H   0  0  0  0  0  0  0  0  0  0  0  0
   -4.2424   -0.0961  -12.1408 O   0  0  0  0  0  0  0  0  0  0  0  0
   -3.6578   -0.7886  -11.8167 H   0  0  0  0  0  0  0  0  0  0  0  0
   -5.0718   -0.1826  -11.6599 H   0  0  0  0  0  0  0  0  0  0  0  0
    0.0024    5.1863   -9.7660 O   0  0  0  0  0  0  0  0  0  0  0  0
    0.9337    5.3325   -9.9600 H   0  0  0  0  0  0  0  0  0  0  0  0
   -0.3209    4.5399  -10.4010 H   0  0  0  0  0  0  0  0  0  0  0  0
  1  2  1  0  0  0  0
  2  3  4  0  0  0  0
  3  4  1  0  0  0  0
  4  5  4  0  0  0  0
  4  6  1  0  0  0  0
  6  7  2  0  0  0  0
  2  8  1  0  0  0  0
  7  8  1  0  0  0  0
  3  9  4  0  0  0  0
  1 10  1  0  0  0  0
  1 11  1  0  0  0  0
  1 12  1  0  0  0  0
  6 13  1  0  0  0  0
  7 14  1  0  0  0  0
  5 15  1  0  0  0  0
  9 15  1  0  0  0  0
 16 17  1  0  0  0  0
 17 18  4  0  0  0  0
 18 19  1  0  0  0  0
 15 20  1  0  0  0  0
 19 20  4  0  0  0  0
 19 21  1  0  0  0  0
 21 22  2  0  0  0  0
 17 23  1  0  0  0  0
 22 23  1  0  0  0  0
 15 24  1  0  0  0  0
 18 24  4  0  0  0  0
 16 25  1  0  0  0  0
 16 26  1  0  0  0  0
 16 27  1  0  0  0  0
 21 28  1  0  0  0  0
 22 29  1  0  0  0  0
 30 31  1  0  0  0  0
 31 32  4  0  0  0  0
 32 33  1  0  0  0  0
 15 34  1  0  0  0  0
 33 34  4  0  0  0  0
 33 35  1  0  0  0  0
 35 36  2  0  0  0  0
 31 37  1  0  0  0  0
 36 37  1  0  0  0  0
 15 38  1  0  0  0  0
 32 38  4  0  0  0  0
 30 39  1  0  0  0  0
 30 40  1  0  0  0  0
 30 41  1  0  0  0  0
 35 42  1  0  0  0  0
 36 43  1  0  0  0  0
 44 45  1  0  0  0  0
 44 46  1  0  0  0  0
 47 48  1  0  0  0  0
 47 49  1  0  0  0  0
 50 51  1  0  0  0  0
 50 52  1  0  0  0  0
 53 54  1  0  0  0  0
 53 55  1  0  0  0  0
 56 57  1  0  0  0  0
 56 58  1  0  0  0  0
 59 60  1  0  0  0  0
 59 61  1  0  0  0  0
 62 63  1  0  0  0  0
 62 64  1  0  0  0  0
 65 66  1  0  0  0  0
 65 67  1  0  0  0  0
 68 69  1  0  0  0  0
 68 70  1  0  0  0  0
 71 72  1  0  0  0  0
 71 73  1  0  0  0  0
 74 75  1  0  0  0  0
 74 76  1  0  0  0  0
 77 78  1  0  0  0  0
 77 79  1  0  0  0  0
 80 81  1  0  0  0  0
 80 82  1  0  0  0  0
 83 84  1  0  0  0  0
 83 85  1  0  0  0  0
 86 87  1  0  0  0  0
 86 88  1  0  0  0  0
 89 90  1  0  0  0  0
 89 91  1  0  0  0  0
 92 93  1  0  0  0  0
 92 94  1  0  0  0  0
 95 96  1  0  0  0  0
 95 97  1  0  0  0  0
 98 99  1  0  0  0  0
 98100  1  0  0  0  0
101102  1  0  0  0  0
101103  1  0  0  0  0
104105  1  0  0  0  0
104106  1  0  0  0  0
107108  1  0  0  0  0
107109  1  0  0  0  0
110111  1  0  0  0  0
110112  1  0  0  0  0
113114  1  0  0  0  0
113115  1  0  0  0  0
116117  1  0  0  0  0
116118  1  0  0  0  0
119120  1  0  0  0  0
119121  1  0  0  0  0
122123  1  0  0  0  0
122124  1  0  0  0  0
125126  1  0  0  0  0
125127  1  0  0  0  0
128129  1  0  0  0  0
128130  1  0  0  0  0
131132  1  0  0  0  0
131133  1  0  0  0  0
134135  1  0  0  0  0
134136  1  0  0  0  0
137138  1  0  0  0  0
137139  1  0  0  0  0
140141  1  0  0  0  0
140142  1  0  0  0  0
143144  1  0  0  0  0
143145  1  0  0  0  0
146147  1  0  0  0  0
146148  1  0  0  0  0
149150  1  0  0  0  0
149151  1  0  0  0  0
152153  1  0  0  0  0
152154  1  0  0  0  0
155156  1  0  0  0  0
155157  1  0  0  0  0
158159  1  0  0  0  0
158160  1  0  0  0  0
161162  1  0  0  0  0
161163  1  0  0  0  0
164165  1  0  0  0  0
164166  1  0  0  0  0
167168  1  0  0  0  0
167169  1  0  0  0  0
170171  1  0  0  0  0
170172  1  0  0  0  0
173174  1  0  0  0  0
173175  1  0  0  0  0
176177  1  0  0  0  0
176178  1  0  0  0  0
179180  1  0  0  0  0
179181  1  0  0  0  0
182183  1  0  0  0  0
182184  1  0  0  0  0
185186  1  0  0  0  0
185187  1  0  0  0  0
188189  1  0  0  0  0
188190  1  0  0  0  0
191192  1  0  0  0  0
191193  1  0  0  0  0
194195  1  0  0  0  0
194196  1  0  0  0  0
197198  1  0  0  0  0
197199  1  0  0  0  0
200201  1  0  0  0  0
200202  1  0  0  0  0
203204  1  0  0  0  0
203205  1  0  0  0  0
206207  1  0  0  0  0
206208  1  0  0  0  0
209210  1  0  0  0  0
209211  1  0  0  0  0
212213  1  0  0  0  0
212214  1  0  0  0  0
215216  1  0  0  0  0
215217  1  0  0  0  0
218219  1  0  0  0  0
218220  1  0  0  0  0
221222  1  0  0  0  0
221223  1  0  0  0  0
224225  1  0  0  0  0
224226  1  0  0  0  0
227228  1  0  0  0  0
227229  1  0  0  0  0
230231  1  0  0  0  0
230232  1  0  0  0  0
233234  1  0  0  0  0
233235  1  0  0  0  0
236237  1  0  0  0  0
236238  1  0  0  0  0
239240  1  0  0  0  0
239241  1  0  0  0  0
242243  1  0  0  0  0
242244  1  0  0  0  0
245246  1  0  0  0  0
245247  1  0  0  0  0
248249  1  0  0  0  0
248250  1  0  0  0  0
251252  1  0  0  0  0
251253  1  0  0  0  0
254255  1  0  0  0  0
254256  1  0  0  0  0
257258  1  0  0  0  0
257259  1  0  0  0  0
260261  1  0  0  0  0
260262  1  0  0  0  0
263264  1  0  0  0  0
263265  1  0  0  0  0
266267  1  0  0  0  0
266268  1  0  0  0  0
269270  1  0  0  0  0
269271  1  0  0  0  0
272273  1  0  0  0  0
272274  1  0  0  0  0
275276  1  0  0  0  0
275277  1  0  0  0  0
278279  1  0  0  0  0
278280  1  0  0  0  0
281282  1  0  0  0  0
281283  1  0  0  0  0
284285  1  0  0  0  0
284286  1  0  0  0  0
287288  1  0  0  0  0
287289  1  0  0  0  0
290291  1  0  0  0  0
290292  1  0  0  0  0
293294  1  0  0  0  0
293295  1  0  0  0  0
296297  1  0  0  0  0
296298  1  0  0  0  0
299300  1  0  0  0  0
299301  1  0  0  0  0
302303  1  0  0  0  0
302304  1  0  0  0  0
305306  1  0  0  0  0
305307  1  0  0  0  0
308309  1  0  0  0  0
308310  1  0  0  0  0
311312  1  0  0  0  0
311313  1  0  0  0  0
M  CHG  1   1  -1
M  END
