 xtb: 6.6.0 (conda-forge)
          11042415263D

358258  0     0  0            999 V2000
    3.6121    4.1970   -0.9214 C   0  0  0  0  0  0  0  0  0  0  0  0
    3.8113    3.1691   -1.8642 C   0  0  0  0  0  0  0  0  0  0  0  0
    3.0828    1.9952   -1.7838 C   0  0  0  0  0  0  0  0  0  0  0  0
    2.0893    1.7433   -0.7565 C   0  0  0  0  0  0  0  0  0  0  0  0
    1.9026    2.8119    0.2138 C   0  0  0  0  0  0  0  0  0  0  0  0
    2.6614    3.9767    0.0889 C   0  0  0  0  0  0  0  0  0  0  0  0
    0.9162    2.7225    1.3825 C   0  0  0  0  0  0  0  0  0  0  0  0
    0.1989    1.6906    1.5018 O   0  0  0  0  0  0  0  0  0  0  0  0
    0.8803    3.7098    2.1759 O   0  0  0  0  0  0  0  0  0  0  0  0
    1.4752    0.6346   -0.7817 O   0  0  0  0  0  0  0  0  0  0  0  0
    4.1785    5.1280   -0.9684 H   0  0  0  0  0  0  0  0  0  0  0  0
    4.5461    3.2942   -2.6662 H   0  0  0  0  0  0  0  0  0  0  0  0
    3.2270    1.1912   -2.5030 H   0  0  0  0  0  0  0  0  0  0  0  0
    2.4771    4.7367    0.8450 H   0  0  0  0  0  0  0  0  0  0  0  0
   -0.0129    0.0067    0.3878 Fe  0  0  0  0  0  0  0  0  0  0  0  0
    1.9215   -5.1841   -0.9131 C   0  0  0  0  0  0  0  0  0  0  0  0
    0.9241   -4.8671   -1.8566 C   0  0  0  0  0  0  0  0  0  0  0  0
    0.2349   -3.6704   -1.7705 C   0  0  0  0  0  0  0  0  0  0  0  0
    0.4822   -2.6812   -0.7382 C   0  0  0  0  0  0  0  0  0  0  0  0
    1.5072   -3.0300    0.2347 C   0  0  0  0  0  0  0  0  0  0  0  0
    2.1738   -4.2494    0.1044 C   0  0  0  0  0  0  0  0  0  0  0  0
    1.8873   -2.1289    1.4137 C   0  0  0  0  0  0  0  0  0  0  0  0
    1.3312   -1.0017    1.5281 O   0  0  0  0  0  0  0  0  0  0  0  0
    2.7534   -2.5806    2.2208 O   0  0  0  0  0  0  0  0  0  0  0  0
   -0.2010   -1.6135   -0.7599 O   0  0  0  0  0  0  0  0  0  0  0  0
    2.4752   -6.1227   -0.9658 H   0  0  0  0  0  0  0  0  0  0  0  0
    0.6897   -5.5682   -2.6644 H   0  0  0  0  0  0  0  0  0  0  0  0
   -0.5388   -3.4115   -2.4913 H   0  0  0  0  0  0  0  0  0  0  0  0
    2.9267   -4.4527    0.8629 H   0  0  0  0  0  0  0  0  0  0  0  0
   -5.4691    0.9436   -0.9359 C   0  0  0  0  0  0  0  0  0  0  0  0
   -4.6895    1.6195   -1.8956 C   0  0  0  0  0  0  0  0  0  0  0  0
   -3.3084    1.6054   -1.8108 C   0  0  0  0  0  0  0  0  0  0  0  0
   -2.5817    0.9130   -0.7631 C   0  0  0  0  0  0  0  0  0  0  0  0
   -3.4029    0.2271    0.2241 C   0  0  0  0  0  0  0  0  0  0  0  0
   -4.7920    0.2722    0.0949 C   0  0  0  0  0  0  0  0  0  0  0  0
   -2.8197   -0.5395    1.4151 C   0  0  0  0  0  0  0  0  0  0  0  0
   -1.5660   -0.6331    1.5291 O   0  0  0  0  0  0  0  0  0  0  0  0
   -3.6484   -1.0435    2.2303 O   0  0  0  0  0  0  0  0  0  0  0  0
   -1.3150    0.9599   -0.7854 O   0  0  0  0  0  0  0  0  0  0  0  0
   -6.5590    0.9460   -0.9858 H   0  0  0  0  0  0  0  0  0  0  0  0
   -5.1743    2.1604   -2.7149 H   0  0  0  0  0  0  0  0  0  0  0  0
   -2.6926    2.1235   -2.5440 H   0  0  0  0  0  0  0  0  0  0  0  0
   -5.3494   -0.2568    0.8652 H   0  0  0  0  0  0  0  0  0  0  0  0
    0.3503    0.5503    6.0374 O   0  0  0  0  0  0  0  0  0  0  0  0
    1.0445   -0.0613    5.7775 H   0  0  0  0  0  0  0  0  0  0  0  0
   -0.1489    0.7255    5.2108 H   0  0  0  0  0  0  0  0  0  0  0  0
   -2.3216   -3.6527    7.0987 O   0  0  0  0  0  0  0  0  0  0  0  0
   -1.3700   -3.7913    7.1224 H   0  0  0  0  0  0  0  0  0  0  0  0
   -2.4997   -3.0786    6.3487 H   0  0  0  0  0  0  0  0  0  0  0  0
    2.2836    5.7281    6.9579 O   0  0  0  0  0  0  0  0  0  0  0  0
    1.7592    4.9371    7.1152 H   0  0  0  0  0  0  0  0  0  0  0  0
    2.2198    5.9207    6.0180 H   0  0  0  0  0  0  0  0  0  0  0  0
    2.7500   -4.2286    4.3180 O   0  0  0  0  0  0  0  0  0  0  0  0
    3.5311   -3.9169    4.7873 H   0  0  0  0  0  0  0  0  0  0  0  0
    2.6747   -3.6380    3.5335 H   0  0  0  0  0  0  0  0  0  0  0  0
   -4.9003    1.3000    7.1587 O   0  0  0  0  0  0  0  0  0  0  0  0
   -4.0544    1.7057    7.3726 H   0  0  0  0  0  0  0  0  0  0  0  0
   -4.8202    0.9332    6.2739 H   0  0  0  0  0  0  0  0  0  0  0  0
    5.4898    1.7718    4.2784 O   0  0  0  0  0  0  0  0  0  0  0  0
    4.9765    1.1243    3.7875 H   0  0  0  0  0  0  0  0  0  0  0  0
    4.9950    2.5962    4.2448 H   0  0  0  0  0  0  0  0  0  0  0  0
   -1.7069   -7.0304    3.2354 O   0  0  0  0  0  0  0  0  0  0  0  0
   -1.1593   -6.3065    2.9210 H   0  0  0  0  0  0  0  0  0  0  0  0
   -2.5621   -6.6509    3.4592 H   0  0  0  0  0  0  0  0  0  0  0  0
   -1.4199    3.7546    3.4804 O   0  0  0  0  0  0  0  0  0  0  0  0
   -1.5230    2.8043    3.6453 H   0  0  0  0  0  0  0  0  0  0  0  0
   -0.5485    3.8035    2.9928 H   0  0  0  0  0  0  0  0  0  0  0  0
    8.2963   -2.7468    2.8017 O   0  0  0  0  0  0  0  0  0  0  0  0
    8.3975   -1.9669    3.3565 H   0  0  0  0  0  0  0  0  0  0  0  0
    7.3814   -2.7673    2.5087 H   0  0  0  0  0  0  0  0  0  0  0  0
   -5.3853   -3.0807    2.2618 O   0  0  0  0  0  0  0  0  0  0  0  0
   -4.7044   -2.3761    2.1920 H   0  0  0  0  0  0  0  0  0  0  0  0
   -5.8045   -2.9394    3.1171 H   0  0  0  0  0  0  0  0  0  0  0  0
    1.3108    9.8289    1.8242 O   0  0  0  0  0  0  0  0  0  0  0  0
    1.9797   10.0058    2.4935 H   0  0  0  0  0  0  0  0  0  0  0  0
    1.0808    8.8981    1.8940 H   0  0  0  0  0  0  0  0  0  0  0  0
    2.9598   -9.5775    2.8890 O   0  0  0  0  0  0  0  0  0  0  0  0
    2.7832   -8.6416    2.7650 H   0  0  0  0  0  0  0  0  0  0  0  0
    2.1084  -10.0235    2.9468 H   0  0  0  0  0  0  0  0  0  0  0  0
   -0.9550    0.9353    3.6711 O   0  0  0  0  0  0  0  0  0  0  0  0
   -1.3120    0.1518    3.2135 H   0  0  0  0  0  0  0  0  0  0  0  0
   -0.4045    1.2928    2.9011 H   0  0  0  0  0  0  0  0  0  0  0  0
    8.6458    1.3576   -0.2632 O   0  0  0  0  0  0  0  0  0  0  0  0
    7.7601    1.2298    0.0858 H   0  0  0  0  0  0  0  0  0  0  0  0
    8.5538    1.5346   -1.2047 H   0  0  0  0  0  0  0  0  0  0  0  0
   -4.6881   -6.8385   -1.1549 O   0  0  0  0  0  0  0  0  0  0  0  0
   -3.9551   -6.2675   -0.9094 H   0  0  0  0  0  0  0  0  0  0  0  0
   -5.4971   -6.3486   -0.9780 H   0  0  0  0  0  0  0  0  0  0  0  0
   -1.5376    6.7620   -1.8175 O   0  0  0  0  0  0  0  0  0  0  0  0
   -1.5954    6.2642   -0.9974 H   0  0  0  0  0  0  0  0  0  0  0  0
   -0.8910    6.3094   -2.3673 H   0  0  0  0  0  0  0  0  0  0  0  0
    6.9176   -2.6875   -2.6793 O   0  0  0  0  0  0  0  0  0  0  0  0
    7.3408   -3.3367   -2.1082 H   0  0  0  0  0  0  0  0  0  0  0  0
    6.0900   -2.4395   -2.2591 H   0  0  0  0  0  0  0  0  0  0  0  0
   -5.6156   -1.6072   -2.6424 O   0  0  0  0  0  0  0  0  0  0  0  0
   -5.5258   -0.8439   -2.0476 H   0  0  0  0  0  0  0  0  0  0  0  0
   -4.7640   -2.0526   -2.6205 H   0  0  0  0  0  0  0  0  0  0  0  0
    2.7642    4.1311   -7.0960 O   0  0  0  0  0  0  0  0  0  0  0  0
    2.1216    3.6754   -6.5447 H   0  0  0  0  0  0  0  0  0  0  0  0
    3.4703    3.5049   -7.2861 H   0  0  0  0  0  0  0  0  0  0  0  0
   -3.2110   -5.8238   -6.3937 O   0  0  0  0  0  0  0  0  0  0  0  0
   -3.3965   -5.4931   -5.5106 H   0  0  0  0  0  0  0  0  0  0  0  0
   -3.9988   -5.6668   -6.9249 H   0  0  0  0  0  0  0  0  0  0  0  0
   -2.8616    3.6220   -7.8586 O   0  0  0  0  0  0  0  0  0  0  0  0
   -3.1566    2.7858   -8.2337 H   0  0  0  0  0  0  0  0  0  0  0  0
   -2.9280    3.5400   -6.9033 H   0  0  0  0  0  0  0  0  0  0  0  0
    4.4541   -1.1331   -7.2010 O   0  0  0  0  0  0  0  0  0  0  0  0
    4.1619   -1.3512   -6.3121 H   0  0  0  0  0  0  0  0  0  0  0  0
    3.8351   -1.5444   -7.8129 H   0  0  0  0  0  0  0  0  0  0  0  0
   -0.4407   -0.3741   -6.1151 O   0  0  0  0  0  0  0  0  0  0  0  0
   -0.0897   -0.1506   -5.2485 H   0  0  0  0  0  0  0  0  0  0  0  0
   -1.3075   -0.7635   -5.9658 H   0  0  0  0  0  0  0  0  0  0  0  0
    1.1076    1.2742  -11.2535 O   0  0  0  0  0  0  0  0  0  0  0  0
    1.6521    0.4892  -11.3695 H   0  0  0  0  0  0  0  0  0  0  0  0
    0.7660    1.2487  -10.3548 H   0  0  0  0  0  0  0  0  0  0  0  0
    3.9946    1.4078    9.7508 O   0  0  0  0  0  0  0  0  0  0  0  0
    4.2475    1.2020    8.8464 H   0  0  0  0  0  0  0  0  0  0  0  0
    3.0351    1.3496    9.7935 H   0  0  0  0  0  0  0  0  0  0  0  0
   -3.3355   -0.7751   11.8083 O   0  0  0  0  0  0  0  0  0  0  0  0
   -2.9792   -1.0965   10.9745 H   0  0  0  0  0  0  0  0  0  0  0  0
   -4.1535   -0.3097   11.6068 H   0  0  0  0  0  0  0  0  0  0  0  0
    2.9368    7.7840    8.8597 O   0  0  0  0  0  0  0  0  0  0  0  0
    2.7570    7.0408    8.2641 H   0  0  0  0  0  0  0  0  0  0  0  0
    2.2920    8.4640    8.6415 H   0  0  0  0  0  0  0  0  0  0  0  0
    1.0203   -8.4405    7.7062 O   0  0  0  0  0  0  0  0  0  0  0  0
    1.7079   -9.0819    7.4993 H   0  0  0  0  0  0  0  0  0  0  0  0
    1.0313   -7.7796    7.0076 H   0  0  0  0  0  0  0  0  0  0  0  0
   -7.3595    1.7687    8.5479 O   0  0  0  0  0  0  0  0  0  0  0  0
   -6.5082    1.5625    8.1335 H   0  0  0  0  0  0  0  0  0  0  0  0
   -7.8289    2.3285    7.9217 H   0  0  0  0  0  0  0  0  0  0  0  0
    7.7702    4.9258    8.1550 O   0  0  0  0  0  0  0  0  0  0  0  0
    7.7778    4.0755    7.7061 H   0  0  0  0  0  0  0  0  0  0  0  0
    6.8781    5.0579    8.4907 H   0  0  0  0  0  0  0  0  0  0  0  0
   -4.0859   -8.9514    7.7996 O   0  0  0  0  0  0  0  0  0  0  0  0
   -3.7735   -9.3768    6.9947 H   0  0  0  0  0  0  0  0  0  0  0  0
   -3.7643   -8.0448    7.7822 H   0  0  0  0  0  0  0  0  0  0  0  0
   -2.5214    5.7041    5.0980 O   0  0  0  0  0  0  0  0  0  0  0  0
   -2.0560    5.0435    4.5531 H   0  0  0  0  0  0  0  0  0  0  0  0
   -3.4572    5.5714    4.9190 H   0  0  0  0  0  0  0  0  0  0  0  0
   10.9529   -4.9609    6.7449 O   0  0  0  0  0  0  0  0  0  0  0  0
   11.4993   -4.7394    5.9843 H   0  0  0  0  0  0  0  0  0  0  0  0
   10.0502   -5.0554    6.4255 H   0  0  0  0  0  0  0  0  0  0  0  0
   -7.5135   -3.8391    7.5004 O   0  0  0  0  0  0  0  0  0  0  0  0
   -6.9001   -4.5171    7.8024 H   0  0  0  0  0  0  0  0  0  0  0  0
   -7.0945   -2.9878    7.6564 H   0  0  0  0  0  0  0  0  0  0  0  0
    5.9785    9.2788    4.8688 O   0  0  0  0  0  0  0  0  0  0  0  0
    6.1410    8.5418    5.4659 H   0  0  0  0  0  0  0  0  0  0  0  0
    5.9721   10.0771    5.4069 H   0  0  0  0  0  0  0  0  0  0  0  0
    5.4078  -10.5985    3.8601 O   0  0  0  0  0  0  0  0  0  0  0  0
    5.7665  -11.0743    3.1041 H   0  0  0  0  0  0  0  0  0  0  0  0
    4.5711  -10.2096    3.5584 H   0  0  0  0  0  0  0  0  0  0  0  0
   -7.8191    4.0887    3.2864 O   0  0  0  0  0  0  0  0  0  0  0  0
   -7.1971    3.3785    3.1070 H   0  0  0  0  0  0  0  0  0  0  0  0
   -7.5266    4.8536    2.7805 H   0  0  0  0  0  0  0  0  0  0  0  0
   13.4385    1.4478    2.1854 O   0  0  0  0  0  0  0  0  0  0  0  0
   13.6417    1.9099    1.3658 H   0  0  0  0  0  0  0  0  0  0  0  0
   12.5130    1.1902    2.1384 H   0  0  0  0  0  0  0  0  0  0  0  0
   -6.9977   -8.3782    3.5481 O   0  0  0  0  0  0  0  0  0  0  0  0
   -6.6057   -8.8068    2.7808 H   0  0  0  0  0  0  0  0  0  0  0  0
   -7.0647   -7.4397    3.3478 H   0  0  0  0  0  0  0  0  0  0  0  0
   -3.8845   10.0911    1.8513 O   0  0  0  0  0  0  0  0  0  0  0  0
   -3.5793    9.1910    1.9975 H   0  0  0  0  0  0  0  0  0  0  0  0
   -3.4277   10.4197    1.0706 H   0  0  0  0  0  0  0  0  0  0  0  0
    7.4884   -7.3566    0.2297 O   0  0  0  0  0  0  0  0  0  0  0  0
    8.1303   -7.7647    0.8202 H   0  0  0  0  0  0  0  0  0  0  0  0
    6.7429   -7.0822    0.7712 H   0  0  0  0  0  0  0  0  0  0  0  0
  -10.3419   -2.3498    0.5547 O   0  0  0  0  0  0  0  0  0  0  0  0
   -9.5158   -2.2813    0.0676 H   0  0  0  0  0  0  0  0  0  0  0  0
  -10.1114   -2.4284    1.4858 H   0  0  0  0  0  0  0  0  0  0  0  0
    8.4436    6.6902    0.7858 O   0  0  0  0  0  0  0  0  0  0  0  0
    8.2630    5.7982    1.0964 H   0  0  0  0  0  0  0  0  0  0  0  0
    7.7286    7.2497    1.1035 H   0  0  0  0  0  0  0  0  0  0  0  0
   -0.9911  -10.4754   -0.6345 O   0  0  0  0  0  0  0  0  0  0  0  0
   -0.6549   -9.5923   -0.8120 H   0  0  0  0  0  0  0  0  0  0  0  0
   -1.7477  -10.3737   -0.0484 H   0  0  0  0  0  0  0  0  0  0  0  0
   -6.8468    7.1205   -1.3150 O   0  0  0  0  0  0  0  0  0  0  0  0
   -6.2230    6.4018   -1.4508 H   0  0  0  0  0  0  0  0  0  0  0  0
   -6.4177    7.9267   -1.6203 H   0  0  0  0  0  0  0  0  0  0  0  0
   12.1440   -2.5653   -1.2583 O   0  0  0  0  0  0  0  0  0  0  0  0
   11.6454   -2.6671   -0.4419 H   0  0  0  0  0  0  0  0  0  0  0  0
   11.8095   -1.7757   -1.6947 H   0  0  0  0  0  0  0  0  0  0  0  0
   -8.3624   -5.7198   -5.1420 O   0  0  0  0  0  0  0  0  0  0  0  0
   -8.4321   -6.5253   -4.6200 H   0  0  0  0  0  0  0  0  0  0  0  0
   -8.2340   -4.9938   -4.5245 H   0  0  0  0  0  0  0  0  0  0  0  0
    1.0179   10.8748   -3.6644 O   0  0  0  0  0  0  0  0  0  0  0  0
    1.3477   10.0342   -3.9963 H   0  0  0  0  0  0  0  0  0  0  0  0
    0.8212   10.7502   -2.7312 H   0  0  0  0  0  0  0  0  0  0  0  0
    5.6056   -7.2293   -5.0305 O   0  0  0  0  0  0  0  0  0  0  0  0
    6.3631   -7.3551   -4.4499 H   0  0  0  0  0  0  0  0  0  0  0  0
    5.0368   -6.5758   -4.6143 H   0  0  0  0  0  0  0  0  0  0  0  0
   -9.9341    0.5111   -5.4033 O   0  0  0  0  0  0  0  0  0  0  0  0
   -9.3622    0.3424   -4.6491 H   0  0  0  0  0  0  0  0  0  0  0  0
  -10.7760    0.8197   -5.0537 H   0  0  0  0  0  0  0  0  0  0  0  0
    8.1392    6.8450   -4.6384 O   0  0  0  0  0  0  0  0  0  0  0  0
    8.3561    7.3769   -3.8666 H   0  0  0  0  0  0  0  0  0  0  0  0
    7.2310    6.5471   -4.5311 H   0  0  0  0  0  0  0  0  0  0  0  0
   -4.3761  -10.6477   -5.2459 O   0  0  0  0  0  0  0  0  0  0  0  0
   -3.5530  -10.5571   -5.7363 H   0  0  0  0  0  0  0  0  0  0  0  0
   -4.3390  -10.0194   -4.5185 H   0  0  0  0  0  0  0  0  0  0  0  0
   -3.0465    8.6603   -6.9873 O   0  0  0  0  0  0  0  0  0  0  0  0
   -3.8450    8.1308   -7.0755 H   0  0  0  0  0  0  0  0  0  0  0  0
   -2.4787    8.2098   -6.3547 H   0  0  0  0  0  0  0  0  0  0  0  0
    8.8300   -3.7989   -7.8529 O   0  0  0  0  0  0  0  0  0  0  0  0
    8.2725   -3.9377   -7.0812 H   0  0  0  0  0  0  0  0  0  0  0  0
    8.2428   -3.6205   -8.5942 H   0  0  0  0  0  0  0  0  0  0  0  0
   -5.4169   -1.3391   -8.1501 O   0  0  0  0  0  0  0  0  0  0  0  0
   -5.9259   -1.2930   -7.3356 H   0  0  0  0  0  0  0  0  0  0  0  0
   -5.9532   -0.9410   -8.8435 H   0  0  0  0  0  0  0  0  0  0  0  0
    3.1629    6.9603   -7.0264 O   0  0  0  0  0  0  0  0  0  0  0  0
    3.0357    5.9996   -6.9866 H   0  0  0  0  0  0  0  0  0  0  0  0
    2.8453    7.2328   -7.8937 H   0  0  0  0  0  0  0  0  0  0  0  0
    1.1282   -7.3607   -9.0060 O   0  0  0  0  0  0  0  0  0  0  0  0
    1.0116   -6.7855   -8.2439 H   0  0  0  0  0  0  0  0  0  0  0  0
    1.4372   -6.8111   -9.7338 H   0  0  0  0  0  0  0  0  0  0  0  0
   -4.2501    1.3769  -12.7323 O   0  0  0  0  0  0  0  0  0  0  0  0
   -3.3740    1.7705  -12.7933 H   0  0  0  0  0  0  0  0  0  0  0  0
   -4.8610    2.0824  -12.4976 H   0  0  0  0  0  0  0  0  0  0  0  0
    7.0128    0.1680  -11.5553 O   0  0  0  0  0  0  0  0  0  0  0  0
    7.1608    0.4035  -10.6344 H   0  0  0  0  0  0  0  0  0  0  0  0
    6.9908    0.9904  -12.0554 H   0  0  0  0  0  0  0  0  0  0  0  0
   -1.3953   -3.1641  -10.9017 O   0  0  0  0  0  0  0  0  0  0  0  0
   -1.4748   -3.1899   -9.9435 H   0  0  0  0  0  0  0  0  0  0  0  0
   -1.9559   -2.4441  -11.2078 H   0  0  0  0  0  0  0  0  0  0  0  0
    2.9253   -0.0273   15.0086 O   0  0  0  0  0  0  0  0  0  0  0  0
    3.4636   -0.1041   14.2148 H   0  0  0  0  0  0  0  0  0  0  0  0
    2.5157    0.8435   14.9857 H   0  0  0  0  0  0  0  0  0  0  0  0
   -2.8386   -2.0854   14.3145 O   0  0  0  0  0  0  0  0  0  0  0  0
   -1.9569   -1.7708   14.5375 H   0  0  0  0  0  0  0  0  0  0  0  0
   -3.0652   -1.6632   13.4709 H   0  0  0  0  0  0  0  0  0  0  0  0
    2.3571    5.2474   13.3834 O   0  0  0  0  0  0  0  0  0  0  0  0
    2.9459    5.0658   12.6442 H   0  0  0  0  0  0  0  0  0  0  0  0
    1.6410    5.7924   13.0427 H   0  0  0  0  0  0  0  0  0  0  0  0
    6.0220   -6.2296    8.4844 O   0  0  0  0  0  0  0  0  0  0  0  0
    6.1274   -7.1361    8.1771 H   0  0  0  0  0  0  0  0  0  0  0  0
    5.0819   -6.0889    8.6298 H   0  0  0  0  0  0  0  0  0  0  0  0
   -9.5102    3.0907   13.1053 O   0  0  0  0  0  0  0  0  0  0  0  0
   -8.5735    2.9342   12.9505 H   0  0  0  0  0  0  0  0  0  0  0  0
   -9.9577    2.9553   12.2641 H   0  0  0  0  0  0  0  0  0  0  0  0
   11.3114    6.0043   12.0914 O   0  0  0  0  0  0  0  0  0  0  0  0
   11.8614    5.7011   11.3621 H   0  0  0  0  0  0  0  0  0  0  0  0
   10.4273    5.6566   11.9384 H   0  0  0  0  0  0  0  0  0  0  0  0
   -4.2662  -10.4442   10.2467 O   0  0  0  0  0  0  0  0  0  0  0  0
   -3.3632  -10.3118   10.5525 H   0  0  0  0  0  0  0  0  0  0  0  0
   -4.3396   -9.9519    9.4140 H   0  0  0  0  0  0  0  0  0  0  0  0
   -2.0751    6.9420   10.3429 O   0  0  0  0  0  0  0  0  0  0  0  0
   -1.9610    6.2499    9.6848 H   0  0  0  0  0  0  0  0  0  0  0  0
   -2.1433    7.7748    9.8649 H   0  0  0  0  0  0  0  0  0  0  0  0
   11.6805   -6.6029    8.9727 O   0  0  0  0  0  0  0  0  0  0  0  0
   11.5164   -6.0221    8.2123 H   0  0  0  0  0  0  0  0  0  0  0  0
   10.9565   -6.4429    9.5859 H   0  0  0  0  0  0  0  0  0  0  0  0
   -9.7447   -4.2999    5.7403 O   0  0  0  0  0  0  0  0  0  0  0  0
   -8.9978   -4.0831    6.3187 H   0  0  0  0  0  0  0  0  0  0  0  0
  -10.0810   -5.1474    6.0500 H   0  0  0  0  0  0  0  0  0  0  0  0
    7.9508   10.0210    9.7043 O   0  0  0  0  0  0  0  0  0  0  0  0
    8.6596    9.3702    9.7276 H   0  0  0  0  0  0  0  0  0  0  0  0
    7.1350    9.5555    9.9138 H   0  0  0  0  0  0  0  0  0  0  0  0
    5.6373  -11.4947    6.5377 O   0  0  0  0  0  0  0  0  0  0  0  0
    5.6128  -11.0899    5.6542 H   0  0  0  0  0  0  0  0  0  0  0  0
    5.1525  -12.3224    6.4599 H   0  0  0  0  0  0  0  0  0  0  0  0
  -12.0706    6.4714    5.8880 O   0  0  0  0  0  0  0  0  0  0  0  0
  -11.4910    5.7337    5.6745 H   0  0  0  0  0  0  0  0  0  0  0  0
  -11.6751    7.2597    5.5021 H   0  0  0  0  0  0  0  0  0  0  0  0
   13.1527    3.9968    7.1636 O   0  0  0  0  0  0  0  0  0  0  0  0
   13.4438    3.4168    6.4531 H   0  0  0  0  0  0  0  0  0  0  0  0
   12.3691    4.4582    6.8486 H   0  0  0  0  0  0  0  0  0  0  0  0
   -8.9299   -9.6821    5.1948 O   0  0  0  0  0  0  0  0  0  0  0  0
   -8.4678   -9.8137    6.0285 H   0  0  0  0  0  0  0  0  0  0  0  0
   -8.2966   -9.2358    4.6094 H   0  0  0  0  0  0  0  0  0  0  0  0
   -1.0897   10.8634    6.3117 O   0  0  0  0  0  0  0  0  0  0  0  0
   -1.1911    9.9932    5.9145 H   0  0  0  0  0  0  0  0  0  0  0  0
   -1.5175   11.4913    5.7208 H   0  0  0  0  0  0  0  0  0  0  0  0
   10.7397   -9.3997    4.3763 O   0  0  0  0  0  0  0  0  0  0  0  0
   11.4375   -9.3613    5.0382 H   0  0  0  0  0  0  0  0  0  0  0  0
    9.9102   -9.5135    4.8511 H   0  0  0  0  0  0  0  0  0  0  0  0
  -14.8292   -3.7934    3.3300 O   0  0  0  0  0  0  0  0  0  0  0  0
  -14.0922   -3.7948    3.9490 H   0  0  0  0  0  0  0  0  0  0  0  0
  -14.4917   -3.4587    2.4934 H   0  0  0  0  0  0  0  0  0  0  0  0
   11.3824   10.3117    3.3448 O   0  0  0  0  0  0  0  0  0  0  0  0
   11.4887    9.7869    2.5452 H   0  0  0  0  0  0  0  0  0  0  0  0
   10.4774   10.1843    3.6462 H   0  0  0  0  0  0  0  0  0  0  0  0
    1.8794  -14.6943    1.7197 O   0  0  0  0  0  0  0  0  0  0  0  0
    2.7305  -14.3887    1.3899 H   0  0  0  0  0  0  0  0  0  0  0  0
    1.2024  -14.2424    1.2066 H   0  0  0  0  0  0  0  0  0  0  0  0
   -9.1380   10.1545    2.8036 O   0  0  0  0  0  0  0  0  0  0  0  0
   -8.9116    9.5006    2.1352 H   0  0  0  0  0  0  0  0  0  0  0  0
   -8.3571   10.7016    2.9343 H   0  0  0  0  0  0  0  0  0  0  0  0
   17.1863   -2.4927    1.0068 O   0  0  0  0  0  0  0  0  0  0  0  0
   16.5514   -2.7766    0.3415 H   0  0  0  0  0  0  0  0  0  0  0  0
   16.7354   -1.8554    1.5696 H   0  0  0  0  0  0  0  0  0  0  0  0
  -10.1107   -7.8450   -0.3907 O   0  0  0  0  0  0  0  0  0  0  0  0
  -10.4409   -8.5237    0.2068 H   0  0  0  0  0  0  0  0  0  0  0  0
  -10.2857   -6.9955    0.0256 H   0  0  0  0  0  0  0  0  0  0  0  0
    4.6794   13.6601   -0.8785 O   0  0  0  0  0  0  0  0  0  0  0  0
    4.1499   13.0081   -0.4093 H   0  0  0  0  0  0  0  0  0  0  0  0
    4.6194   13.4500   -1.8160 H   0  0  0  0  0  0  0  0  0  0  0  0
    5.2958  -11.7987   -1.5489 O   0  0  0  0  0  0  0  0  0  0  0  0
    6.0649  -11.3372   -1.8973 H   0  0  0  0  0  0  0  0  0  0  0  0
    4.5414  -11.5319   -2.0830 H   0  0  0  0  0  0  0  0  0  0  0  0
  -10.8153    3.1002   -0.9942 O   0  0  0  0  0  0  0  0  0  0  0  0
  -10.7942    2.6162   -0.1630 H   0  0  0  0  0  0  0  0  0  0  0  0
  -10.2724    3.8860   -0.8773 H   0  0  0  0  0  0  0  0  0  0  0  0
   12.3740    4.3095   -2.5129 O   0  0  0  0  0  0  0  0  0  0  0  0
   11.8592    4.1174   -3.3030 H   0  0  0  0  0  0  0  0  0  0  0  0
   11.7946    4.7869   -1.9109 H   0  0  0  0  0  0  0  0  0  0  0  0
   -5.0397  -14.2572   -1.5078 O   0  0  0  0  0  0  0  0  0  0  0  0
   -4.1820  -13.9285   -1.7950 H   0  0  0  0  0  0  0  0  0  0  0  0
   -5.7068  -13.7399   -1.9700 H   0  0  0  0  0  0  0  0  0  0  0  0
   -4.5927   11.9775   -3.3396 O   0  0  0  0  0  0  0  0  0  0  0  0
   -4.9931   11.8802   -4.2094 H   0  0  0  0  0  0  0  0  0  0  0  0
   -3.6663   11.7329   -3.4291 H   0  0  0  0  0  0  0  0  0  0  0  0
   11.0649   -6.9186   -4.0044 O   0  0  0  0  0  0  0  0  0  0  0  0
   10.8338   -6.8086   -3.0771 H   0  0  0  0  0  0  0  0  0  0  0  0
   11.3644   -6.0612   -4.3233 H   0  0  0  0  0  0  0  0  0  0  0  0
  -10.0259   -3.2366   -9.4994 O   0  0  0  0  0  0  0  0  0  0  0  0
   -9.5031   -4.0438   -9.5362 H   0  0  0  0  0  0  0  0  0  0  0  0
  -10.1407   -3.0199   -8.5690 H   0  0  0  0  0  0  0  0  0  0  0  0
    5.6338   11.6927   -6.1215 O   0  0  0  0  0  0  0  0  0  0  0  0
    5.7530   10.7406   -6.0510 H   0  0  0  0  0  0  0  0  0  0  0  0
    4.7956   11.8366   -6.5723 H   0  0  0  0  0  0  0  0  0  0  0  0
    3.4322  -12.0445   -6.6681 O   0  0  0  0  0  0  0  0  0  0  0  0
    3.8377  -11.1868   -6.8282 H   0  0  0  0  0  0  0  0  0  0  0  0
    2.5277  -11.9917   -6.9922 H   0  0  0  0  0  0  0  0  0  0  0  0
   -7.4175    5.0840   -6.3467 O   0  0  0  0  0  0  0  0  0  0  0  0
   -7.6561    4.4608   -7.0411 H   0  0  0  0  0  0  0  0  0  0  0  0
   -7.8329    4.7751   -5.5356 H   0  0  0  0  0  0  0  0  0  0  0  0
    9.3930    0.9917   -5.8447 O   0  0  0  0  0  0  0  0  0  0  0  0
   10.0759    0.3234   -5.9629 H   0  0  0  0  0  0  0  0  0  0  0  0
    8.5546    0.5257   -5.7717 H   0  0  0  0  0  0  0  0  0  0  0  0
   -6.8870   -8.8894   -9.5752 O   0  0  0  0  0  0  0  0  0  0  0  0
   -6.1908   -9.5439   -9.4606 H   0  0  0  0  0  0  0  0  0  0  0  0
   -7.1334   -8.5861   -8.6958 H   0  0  0  0  0  0  0  0  0  0  0  0
    0.8277   11.4560   -9.2436 O   0  0  0  0  0  0  0  0  0  0  0  0
    0.5032   11.5189   -8.3399 H   0  0  0  0  0  0  0  0  0  0  0  0
    0.3294   10.7527   -9.6717 H   0  0  0  0  0  0  0  0  0  0  0  0
    9.2651   -8.8544   -8.8967 O   0  0  0  0  0  0  0  0  0  0  0  0
    9.9298   -8.4285   -8.3460 H   0  0  0  0  0  0  0  0  0  0  0  0
    8.4067   -8.6024   -8.5424 H   0  0  0  0  0  0  0  0  0  0  0  0
   -9.3200    1.8148  -10.7573 O   0  0  0  0  0  0  0  0  0  0  0  0
   -9.3077    1.0979  -11.3997 H   0  0  0  0  0  0  0  0  0  0  0  0
   -9.7787    1.4838   -9.9788 H   0  0  0  0  0  0  0  0  0  0  0  0
    7.6925    4.8844   -9.4652 O   0  0  0  0  0  0  0  0  0  0  0  0
    8.2370    4.5717   -8.7361 H   0  0  0  0  0  0  0  0  0  0  0  0
    7.1917    5.6377   -9.1372 H   0  0  0  0  0  0  0  0  0  0  0  0
   -0.7089   -9.5106   -9.4125 O   0  0  0  0  0  0  0  0  0  0  0  0
    0.0019   -8.8693   -9.2523 H   0  0  0  0  0  0  0  0  0  0  0  0
   -1.4915   -8.9886   -9.6159 H   0  0  0  0  0  0  0  0  0  0  0  0
   -0.8342    6.5359  -11.6662 O   0  0  0  0  0  0  0  0  0  0  0  0
   -0.3793    5.7483  -11.3519 H   0  0  0  0  0  0  0  0  0  0  0  0
   -1.5435    6.7166  -11.0414 H   0  0  0  0  0  0  0  0  0  0  0  0
    5.4698   -2.1192  -12.2692 O   0  0  0  0  0  0  0  0  0  0  0  0
    6.1155   -2.6700  -12.7223 H   0  0  0  0  0  0  0  0  0  0  0  0
    5.9509   -1.3214  -11.9927 H   0  0  0  0  0  0  0  0  0  0  0  0
   -4.9322   -3.6582  -15.2706 O   0  0  0  0  0  0  0  0  0  0  0  0
   -4.4767   -4.2700  -14.6837 H   0  0  0  0  0  0  0  0  0  0  0  0
   -4.8870   -2.7888  -14.8600 H   0  0  0  0  0  0  0  0  0  0  0  0
    3.9438    1.8755  -15.7980 O   0  0  0  0  0  0  0  0  0  0  0  0
    3.8378    0.9710  -15.4863 H   0  0  0  0  0  0  0  0  0  0  0  0
    3.4891    2.4428  -15.1676 H   0  0  0  0  0  0  0  0  0  0  0  0
  1  2  4  0  0  0  0
  2  3  2  0  0  0  0
  3  4  1  0  0  0  0
  4  5  1  0  0  0  0
  1  6  4  0  0  0  0
  5  6  4  0  0  0  0
  5  7  1  0  0  0  0
  7  8  4  0  0  0  0
  7  9  4  0  0  0  0
  4 10  4  0  0  0  0
  1 11  1  0  0  0  0
  2 12  1  0  0  0  0
  3 13  1  0  0  0  0
  6 14  1  0  0  0  0
  8 15  1  0  0  0  0
 10 15  1  0  0  0  0
 16 17  4  0  0  0  0
 17 18  2  0  0  0  0
 18 19  1  0  0  0  0
 19 20  1  0  0  0  0
 16 21  4  0  0  0  0
 20 21  4  0  0  0  0
 20 22  1  0  0  0  0
 15 23  1  0  0  0  0
 22 23  4  0  0  0  0
 22 24  4  0  0  0  0
 15 25  1  0  0  0  0
 19 25  4  0  0  0  0
 16 26  1  0  0  0  0
 17 27  1  0  0  0  0
 18 28  1  0  0  0  0
 21 29  1  0  0  0  0
 30 31  4  0  0  0  0
 31 32  2  0  0  0  0
 32 33  1  0  0  0  0
 33 34  1  0  0  0  0
 30 35  4  0  0  0  0
 34 35  4  0  0  0  0
 34 36  1  0  0  0  0
 15 37  1  0  0  0  0
 36 37  4  0  0  0  0
 36 38  4  0  0  0  0
 15 39  1  0  0  0  0
 33 39  4  0  0  0  0
 30 40  1  0  0  0  0
 31 41  1  0  0  0  0
 32 42  1  0  0  0  0
 35 43  1  0  0  0  0
 44 45  1  0  0  0  0
 44 46  1  0  0  0  0
 47 48  1  0  0  0  0
 47 49  1  0  0  0  0
 50 51  1  0  0  0  0
 50 52  1  0  0  0  0
 53 54  1  0  0  0  0
 53 55  1  0  0  0  0
 56 57  1  0  0  0  0
 56 58  1  0  0  0  0
 59 60  1  0  0  0  0
 59 61  1  0  0  0  0
 62 63  1  0  0  0  0
 62 64  1  0  0  0  0
 65 66  1  0  0  0  0
 65 67  1  0  0  0  0
 68 69  1  0  0  0  0
 68 70  1  0  0  0  0
 71 72  1  0  0  0  0
 71 73  1  0  0  0  0
 74 75  1  0  0  0  0
 74 76  1  0  0  0  0
 77 78  1  0  0  0  0
 77 79  1  0  0  0  0
 80 81  1  0  0  0  0
 80 82  1  0  0  0  0
 83 84  1  0  0  0  0
 83 85  1  0  0  0  0
 86 87  1  0  0  0  0
 86 88  1  0  0  0  0
 89 90  1  0  0  0  0
 89 91  1  0  0  0  0
 92 93  1  0  0  0  0
 92 94  1  0  0  0  0
 95 96  1  0  0  0  0
 95 97  1  0  0  0  0
 98 99  1  0  0  0  0
 98100  1  0  0  0  0
101102  1  0  0  0  0
101103  1  0  0  0  0
104105  1  0  0  0  0
104106  1  0  0  0  0
107108  1  0  0  0  0
107109  1  0  0  0  0
110111  1  0  0  0  0
110112  1  0  0  0  0
113114  1  0  0  0  0
113115  1  0  0  0  0
116117  1  0  0  0  0
116118  1  0  0  0  0
119120  1  0  0  0  0
119121  1  0  0  0  0
122123  1  0  0  0  0
122124  1  0  0  0  0
125126  1  0  0  0  0
125127  1  0  0  0  0
128129  1  0  0  0  0
128130  1  0  0  0  0
131132  1  0  0  0  0
131133  1  0  0  0  0
134135  1  0  0  0  0
134136  1  0  0  0  0
137138  1  0  0  0  0
137139  1  0  0  0  0
140141  1  0  0  0  0
140142  1  0  0  0  0
143144  1  0  0  0  0
143145  1  0  0  0  0
146147  1  0  0  0  0
146148  1  0  0  0  0
149150  1  0  0  0  0
149151  1  0  0  0  0
152153  1  0  0  0  0
152154  1  0  0  0  0
155156  1  0  0  0  0
155157  1  0  0  0  0
158159  1  0  0  0  0
158160  1  0  0  0  0
161162  1  0  0  0  0
161163  1  0  0  0  0
164165  1  0  0  0  0
164166  1  0  0  0  0
167168  1  0  0  0  0
167169  1  0  0  0  0
170171  1  0  0  0  0
170172  1  0  0  0  0
173174  1  0  0  0  0
173175  1  0  0  0  0
176177  1  0  0  0  0
176178  1  0  0  0  0
179180  1  0  0  0  0
179181  1  0  0  0  0
182183  1  0  0  0  0
182184  1  0  0  0  0
185186  1  0  0  0  0
185187  1  0  0  0  0
188189  1  0  0  0  0
188190  1  0  0  0  0
191192  1  0  0  0  0
191193  1  0  0  0  0
194195  1  0  0  0  0
194196  1  0  0  0  0
197198  1  0  0  0  0
197199  1  0  0  0  0
200201  1  0  0  0  0
200202  1  0  0  0  0
203204  1  0  0  0  0
203205  1  0  0  0  0
206207  1  0  0  0  0
206208  1  0  0  0  0
209210  1  0  0  0  0
209211  1  0  0  0  0
212213  1  0  0  0  0
212214  1  0  0  0  0
215216  1  0  0  0  0
215217  1  0  0  0  0
218219  1  0  0  0  0
218220  1  0  0  0  0
221222  1  0  0  0  0
221223  1  0  0  0  0
224225  1  0  0  0  0
224226  1  0  0  0  0
227228  1  0  0  0  0
227229  1  0  0  0  0
230231  1  0  0  0  0
230232  1  0  0  0  0
233234  1  0  0  0  0
233235  1  0  0  0  0
236237  1  0  0  0  0
236238  1  0  0  0  0
239240  1  0  0  0  0
239241  1  0  0  0  0
242243  1  0  0  0  0
242244  1  0  0  0  0
245246  1  0  0  0  0
245247  1  0  0  0  0
248249  1  0  0  0  0
248250  1  0  0  0  0
251252  1  0  0  0  0
251253  1  0  0  0  0
254255  1  0  0  0  0
254256  1  0  0  0  0
257258  1  0  0  0  0
257259  1  0  0  0  0
260261  1  0  0  0  0
260262  1  0  0  0  0
263264  1  0  0  0  0
263265  1  0  0  0  0
266267  1  0  0  0  0
266268  1  0  0  0  0
269270  1  0  0  0  0
269271  1  0  0  0  0
272273  1  0  0  0  0
272274  1  0  0  0  0
275276  1  0  0  0  0
275277  1  0  0  0  0
278279  1  0  0  0  0
278280  1  0  0  0  0
281282  1  0  0  0  0
281283  1  0  0  0  0
284285  1  0  0  0  0
284286  1  0  0  0  0
287288  1  0  0  0  0
287289  1  0  0  0  0
290291  1  0  0  0  0
290292  1  0  0  0  0
293294  1  0  0  0  0
293295  1  0  0  0  0
296297  1  0  0  0  0
296298  1  0  0  0  0
299300  1  0  0  0  0
299301  1  0  0  0  0
302303  1  0  0  0  0
302304  1  0  0  0  0
305306  1  0  0  0  0
305307  1  0  0  0  0
308309  1  0  0  0  0
308310  1  0  0  0  0
311312  1  0  0  0  0
311313  1  0  0  0  0
314315  1  0  0  0  0
314316  1  0  0  0  0
317318  1  0  0  0  0
317319  1  0  0  0  0
320321  1  0  0  0  0
320322  1  0  0  0  0
323324  1  0  0  0  0
323325  1  0  0  0  0
326327  1  0  0  0  0
326328  1  0  0  0  0
329330  1  0  0  0  0
329331  1  0  0  0  0
332333  1  0  0  0  0
332334  1  0  0  0  0
335336  1  0  0  0  0
335337  1  0  0  0  0
338339  1  0  0  0  0
338340  1  0  0  0  0
341342  1  0  0  0  0
341343  1  0  0  0  0
344345  1  0  0  0  0
344346  1  0  0  0  0
347348  1  0  0  0  0
347349  1  0  0  0  0
350351  1  0  0  0  0
350352  1  0  0  0  0
353354  1  0  0  0  0
353355  1  0  0  0  0
356357  1  0  0  0  0
356358  1  0  0  0  0
M  CHG  1   1  -4
M  END
