 xtb: 6.6.0 (conda-forge)
          10292414263D

334242  0     0  0            999 V2000
    2.2145   -1.1216   -1.0787 C   0  0  0  0  0  0  0  0  0  0  0  0
    0.8427   -1.1288   -0.4763 C   0  0  0  0  0  0  0  0  0  0  0  0
    0.1648    0.0162   -0.0842 C   0  0  0  0  0  0  0  0  0  0  0  0
   -1.1848   -0.1622    0.5023 C   0  0  0  0  0  0  0  0  0  0  0  0
   -1.8372    0.8359    0.8905 O   0  0  0  0  0  0  0  0  0  0  0  0
   -1.6744   -1.5045    0.5799 C   0  0  0  0  0  0  0  0  0  0  0  0
   -0.9175   -2.5427    0.1489 C   0  0  0  0  0  0  0  0  0  0  0  0
    0.3091   -2.3960   -0.3535 O   0  0  0  0  0  0  0  0  0  0  0  0
    0.6382    1.1978   -0.2026 O   0  0  0  0  0  0  0  0  0  0  0  0
    2.9151   -1.6967   -0.4727 H   0  0  0  0  0  0  0  0  0  0  0  0
    2.2077   -1.5553   -2.0790 H   0  0  0  0  0  0  0  0  0  0  0  0
    2.5402   -0.0884   -1.1345 H   0  0  0  0  0  0  0  0  0  0  0  0
   -2.6589   -1.6888    0.9787 H   0  0  0  0  0  0  0  0  0  0  0  0
   -1.2407   -3.5730    0.1587 H   0  0  0  0  0  0  0  0  0  0  0  0
   -0.9265    2.6277    0.5030 Fe  0  0  0  0  0  0  0  0  0  0  0  0
    0.6063    7.0416   -1.6265 C   0  0  0  0  0  0  0  0  0  0  0  0
   -0.2174    5.9047   -2.1491 C   0  0  0  0  0  0  0  0  0  0  0  0
   -0.4923    4.7557   -1.4180 C   0  0  0  0  0  0  0  0  0  0  0  0
   -1.3536    3.7366   -2.0603 C   0  0  0  0  0  0  0  0  0  0  0  0
   -1.6749    2.6981   -1.4338 O   0  0  0  0  0  0  0  0  0  0  0  0
   -1.7823    4.0160   -3.3955 C   0  0  0  0  0  0  0  0  0  0  0  0
   -1.4350    5.1794   -4.0024 C   0  0  0  0  0  0  0  0  0  0  0  0
   -0.6878    6.1112   -3.4212 O   0  0  0  0  0  0  0  0  0  0  0  0
   -0.0507    4.5435   -0.2371 O   0  0  0  0  0  0  0  0  0  0  0  0
    1.4688    7.2329   -2.2658 H   0  0  0  0  0  0  0  0  0  0  0  0
    0.0180    7.9583   -1.5764 H   0  0  0  0  0  0  0  0  0  0  0  0
    0.9365    6.7689   -0.6298 H   0  0  0  0  0  0  0  0  0  0  0  0
   -2.3962    3.2995   -3.9170 H   0  0  0  0  0  0  0  0  0  0  0  0
   -1.7394    5.4553   -5.0017 H   0  0  0  0  0  0  0  0  0  0  0  0
   -0.0111    3.0971    5.5297 C   0  0  0  0  0  0  0  0  0  0  0  0
   -1.1321    3.5753    4.6589 C   0  0  0  0  0  0  0  0  0  0  0  0
   -1.1892    3.3706    3.2852 C   0  0  0  0  0  0  0  0  0  0  0  0
   -2.3745    3.8976    2.5691 C   0  0  0  0  0  0  0  0  0  0  0  0
   -2.4896    3.7318    1.3311 O   0  0  0  0  0  0  0  0  0  0  0  0
   -3.3458    4.5808    3.3659 C   0  0  0  0  0  0  0  0  0  0  0  0
   -3.1688    4.7073    4.7057 C   0  0  0  0  0  0  0  0  0  0  0  0
   -2.1118    4.2343    5.3543 O   0  0  0  0  0  0  0  0  0  0  0  0
   -0.2848    2.7578    2.6218 O   0  0  0  0  0  0  0  0  0  0  0  0
    0.4785    3.9344    6.0270 H   0  0  0  0  0  0  0  0  0  0  0  0
   -0.3768    2.4202    6.3032 H   0  0  0  0  0  0  0  0  0  0  0  0
    0.7020    2.5788    4.8975 H   0  0  0  0  0  0  0  0  0  0  0  0
   -4.2286    4.9857    2.8979 H   0  0  0  0  0  0  0  0  0  0  0  0
   -3.8680    5.1982    5.3657 H   0  0  0  0  0  0  0  0  0  0  0  0
   -0.9363    1.2363    8.4238 O   0  0  0  0  0  0  0  0  0  0  0  0
   -0.6127    0.4257    8.8283 H   0  0  0  0  0  0  0  0  0  0  0  0
   -0.9736    1.8945    9.1391 H   0  0  0  0  0  0  0  0  0  0  0  0
   -4.3338   -1.2884    5.4287 O   0  0  0  0  0  0  0  0  0  0  0  0
   -4.0234   -1.5817    6.2908 H   0  0  0  0  0  0  0  0  0  0  0  0
   -3.8252   -0.5056    5.1968 H   0  0  0  0  0  0  0  0  0  0  0  0
    0.0769    9.1535    4.9202 O   0  0  0  0  0  0  0  0  0  0  0  0
    0.7659    9.7538    4.6178 H   0  0  0  0  0  0  0  0  0  0  0  0
   -0.0889    8.5285    4.2076 H   0  0  0  0  0  0  0  0  0  0  0  0
    1.3882   -2.4236    5.1065 O   0  0  0  0  0  0  0  0  0  0  0  0
    1.8748   -2.2916    4.2874 H   0  0  0  0  0  0  0  0  0  0  0  0
    0.5863   -1.8971    5.0405 H   0  0  0  0  0  0  0  0  0  0  0  0
   -7.4987    3.8692    6.0565 O   0  0  0  0  0  0  0  0  0  0  0  0
   -7.3900    2.9129    6.0561 H   0  0  0  0  0  0  0  0  0  0  0  0
   -8.0183    4.0944    5.2783 H   0  0  0  0  0  0  0  0  0  0  0  0
    4.1079    6.1675    3.5055 O   0  0  0  0  0  0  0  0  0  0  0  0
    4.3068    5.5805    4.2409 H   0  0  0  0  0  0  0  0  0  0  0  0
    3.3943    5.7559    3.0077 H   0  0  0  0  0  0  0  0  0  0  0  0
   -2.1038   -6.4434    4.7069 O   0  0  0  0  0  0  0  0  0  0  0  0
   -2.2886   -5.5222    4.4993 H   0  0  0  0  0  0  0  0  0  0  0  0
   -1.9547   -6.4713    5.6672 H   0  0  0  0  0  0  0  0  0  0  0  0
   -4.1124    9.7064    0.5498 O   0  0  0  0  0  0  0  0  0  0  0  0
   -3.8369    8.7875    0.4817 H   0  0  0  0  0  0  0  0  0  0  0  0
   -3.3092   10.2389    0.4237 H   0  0  0  0  0  0  0  0  0  0  0  0
    5.4297    1.1178    2.8716 O   0  0  0  0  0  0  0  0  0  0  0  0
    5.7872    0.7946    2.0389 H   0  0  0  0  0  0  0  0  0  0  0  0
    4.4853    1.2470    2.7376 H   0  0  0  0  0  0  0  0  0  0  0  0
   -7.3966    0.8996    1.7523 O   0  0  0  0  0  0  0  0  0  0  0  0
   -7.4630    0.0983    2.2799 H   0  0  0  0  0  0  0  0  0  0  0  0
   -6.4630    1.1298    1.7067 H   0  0  0  0  0  0  0  0  0  0  0  0
    3.4769   10.9803    0.8223 O   0  0  0  0  0  0  0  0  0  0  0  0
    3.5709   10.0362    0.9818 H   0  0  0  0  0  0  0  0  0  0  0  0
    3.0584   11.0795   -0.0383 H   0  0  0  0  0  0  0  0  0  0  0  0
    2.4739   -4.4631    0.0804 O   0  0  0  0  0  0  0  0  0  0  0  0
    2.3467   -5.1540   -0.5776 H   0  0  0  0  0  0  0  0  0  0  0  0
    1.7422   -3.8437   -0.0380 H   0  0  0  0  0  0  0  0  0  0  0  0
   -6.9560    5.4194   -1.3250 O   0  0  0  0  0  0  0  0  0  0  0  0
   -6.1043    4.9773   -1.2539 H   0  0  0  0  0  0  0  0  0  0  0  0
   -7.5777    4.9152   -0.7914 H   0  0  0  0  0  0  0  0  0  0  0  0
    5.4000    4.2637   -1.3574 O   0  0  0  0  0  0  0  0  0  0  0  0
    5.4454    5.2065   -1.1716 H   0  0  0  0  0  0  0  0  0  0  0  0
    4.5418    3.9603   -1.0449 H   0  0  0  0  0  0  0  0  0  0  0  0
   -2.5069   -5.5175   -0.4785 O   0  0  0  0  0  0  0  0  0  0  0  0
   -3.1331   -5.5622   -1.2076 H   0  0  0  0  0  0  0  0  0  0  0  0
   -2.5941   -6.3393    0.0145 H   0  0  0  0  0  0  0  0  0  0  0  0
   -5.9695    9.3339   -4.6575 O   0  0  0  0  0  0  0  0  0  0  0  0
   -6.6892    8.6953   -4.6672 H   0  0  0  0  0  0  0  0  0  0  0  0
   -5.3533    9.0441   -3.9774 H   0  0  0  0  0  0  0  0  0  0  0  0
    4.4229   -3.1105   -4.8731 O   0  0  0  0  0  0  0  0  0  0  0  0
    5.2556   -3.1621   -4.3932 H   0  0  0  0  0  0  0  0  0  0  0  0
    4.5048   -2.3909   -5.5070 H   0  0  0  0  0  0  0  0  0  0  0  0
   -6.0952   -0.1116   -3.3008 O   0  0  0  0  0  0  0  0  0  0  0  0
   -5.4376    0.1963   -2.6692 H   0  0  0  0  0  0  0  0  0  0  0  0
   -6.9146   -0.2382   -2.8126 H   0  0  0  0  0  0  0  0  0  0  0  0
    3.0960    8.1389   -3.9509 O   0  0  0  0  0  0  0  0  0  0  0  0
    3.3955    7.6193   -4.7032 H   0  0  0  0  0  0  0  0  0  0  0  0
    3.0148    9.0477   -4.2562 H   0  0  0  0  0  0  0  0  0  0  0  0
   -1.4201   -1.9807   -5.5120 O   0  0  0  0  0  0  0  0  0  0  0  0
   -0.8157   -2.6857   -5.2626 H   0  0  0  0  0  0  0  0  0  0  0  0
   -1.6885   -1.5376   -4.7014 H   0  0  0  0  0  0  0  0  0  0  0  0
   -3.0070    5.7326   -7.0837 O   0  0  0  0  0  0  0  0  0  0  0  0
   -3.9672    5.7182   -7.0236 H   0  0  0  0  0  0  0  0  0  0  0  0
   -2.7849    5.5476   -8.0015 H   0  0  0  0  0  0  0  0  0  0  0  0
    2.5142    2.0254   -5.7259 O   0  0  0  0  0  0  0  0  0  0  0  0
    1.8045    1.4118   -5.5150 H   0  0  0  0  0  0  0  0  0  0  0  0
    2.6909    2.5306   -4.9270 H   0  0  0  0  0  0  0  0  0  0  0  0
   -4.3164    1.1293   -8.4487 O   0  0  0  0  0  0  0  0  0  0  0  0
   -3.4205    0.8191   -8.6124 H   0  0  0  0  0  0  0  0  0  0  0  0
   -4.4366    1.1523   -7.4941 H   0  0  0  0  0  0  0  0  0  0  0  0
   -0.8431    3.2208   10.4306 O   0  0  0  0  0  0  0  0  0  0  0  0
    0.0576    3.5090   10.6116 H   0  0  0  0  0  0  0  0  0  0  0  0
   -1.3653    4.0147   10.2780 H   0  0  0  0  0  0  0  0  0  0  0  0
   -5.8242    0.3250   10.2853 O   0  0  0  0  0  0  0  0  0  0  0  0
   -5.5119    1.1753    9.9595 H   0  0  0  0  0  0  0  0  0  0  0  0
   -6.7259    0.4545   10.5942 H   0  0  0  0  0  0  0  0  0  0  0  0
   -0.1444    8.5853    7.7053 O   0  0  0  0  0  0  0  0  0  0  0  0
   -0.0378    8.7273    6.7506 H   0  0  0  0  0  0  0  0  0  0  0  0
   -0.9126    9.1043    7.9616 H   0  0  0  0  0  0  0  0  0  0  0  0
    5.8021   -1.5053    7.6759 O   0  0  0  0  0  0  0  0  0  0  0  0
    5.5555   -2.3539    7.2947 H   0  0  0  0  0  0  0  0  0  0  0  0
    5.3561   -0.8260    7.1604 H   0  0  0  0  0  0  0  0  0  0  0  0
   -7.8841    5.4053    8.3734 O   0  0  0  0  0  0  0  0  0  0  0  0
   -7.7574    4.8482    7.5850 H   0  0  0  0  0  0  0  0  0  0  0  0
   -7.2128    6.0925    8.3269 H   0  0  0  0  0  0  0  0  0  0  0  0
    4.1600    5.3373    9.2553 O   0  0  0  0  0  0  0  0  0  0  0  0
    5.0205    5.7748    9.3626 H   0  0  0  0  0  0  0  0  0  0  0  0
    3.6000    5.9617    8.7846 H   0  0  0  0  0  0  0  0  0  0  0  0
   -1.6883   -6.1752    7.4854 O   0  0  0  0  0  0  0  0  0  0  0  0
   -1.1340   -5.4823    7.8588 H   0  0  0  0  0  0  0  0  0  0  0  0
   -2.4270   -6.2971    8.1047 H   0  0  0  0  0  0  0  0  0  0  0  0
   -5.2312   10.4443    5.5577 O   0  0  0  0  0  0  0  0  0  0  0  0
   -4.6845    9.7240    5.2282 H   0  0  0  0  0  0  0  0  0  0  0  0
   -5.2970   11.0935    4.8501 H   0  0  0  0  0  0  0  0  0  0  0  0
   10.8780    0.0592    4.2586 O   0  0  0  0  0  0  0  0  0  0  0  0
    9.9853    0.3524    4.0486 H   0  0  0  0  0  0  0  0  0  0  0  0
   10.8898   -0.0928    5.2163 H   0  0  0  0  0  0  0  0  0  0  0  0
   -9.4327   -1.3552    6.5511 O   0  0  0  0  0  0  0  0  0  0  0  0
   -8.7025   -1.7983    6.9955 H   0  0  0  0  0  0  0  0  0  0  0  0
   -9.7393   -1.9503    5.8601 H   0  0  0  0  0  0  0  0  0  0  0  0
    5.3324   10.5702    6.0092 O   0  0  0  0  0  0  0  0  0  0  0  0
    4.9934    9.8019    6.4795 H   0  0  0  0  0  0  0  0  0  0  0  0
    5.6368   10.2625    5.1495 H   0  0  0  0  0  0  0  0  0  0  0  0
    3.4870   -7.0206    5.0628 O   0  0  0  0  0  0  0  0  0  0  0  0
    3.5680   -6.5802    4.2109 H   0  0  0  0  0  0  0  0  0  0  0  0
    2.5588   -6.9755    5.3138 H   0  0  0  0  0  0  0  0  0  0  0  0
   -8.9839    7.8956    2.7591 O   0  0  0  0  0  0  0  0  0  0  0  0
   -8.1320    8.1964    2.4274 H   0  0  0  0  0  0  0  0  0  0  0  0
   -9.6610    8.3719    2.2694 H   0  0  0  0  0  0  0  0  0  0  0  0
    9.3604    4.6682    1.9617 O   0  0  0  0  0  0  0  0  0  0  0  0
    9.2553    4.0365    1.2438 H   0  0  0  0  0  0  0  0  0  0  0  0
    8.4873    4.8039    2.3432 H   0  0  0  0  0  0  0  0  0  0  0  0
   -7.0258   -4.8655    2.5369 O   0  0  0  0  0  0  0  0  0  0  0  0
   -7.6979   -4.5726    1.9138 H   0  0  0  0  0  0  0  0  0  0  0  0
   -6.2215   -4.3727    2.3449 H   0  0  0  0  0  0  0  0  0  0  0  0
   -1.7589   11.2630    0.2235 O   0  0  0  0  0  0  0  0  0  0  0  0
   -1.4348   11.7078    1.0132 H   0  0  0  0  0  0  0  0  0  0  0  0
   -1.6394   11.8739   -0.5106 H   0  0  0  0  0  0  0  0  0  0  0  0
    7.8654   -2.5779   -0.5862 O   0  0  0  0  0  0  0  0  0  0  0  0
    8.7468   -2.8025   -0.2734 H   0  0  0  0  0  0  0  0  0  0  0  0
    7.2449   -3.1289   -0.0991 H   0  0  0  0  0  0  0  0  0  0  0  0
  -11.2543    2.2143   -2.0013 O   0  0  0  0  0  0  0  0  0  0  0  0
  -11.2967    1.4912   -2.6350 H   0  0  0  0  0  0  0  0  0  0  0  0
  -11.1152    1.8219   -1.1336 H   0  0  0  0  0  0  0  0  0  0  0  0
    7.9647    9.5282   -1.4706 O   0  0  0  0  0  0  0  0  0  0  0  0
    7.1115    9.6064   -1.9091 H   0  0  0  0  0  0  0  0  0  0  0  0
    7.9833   10.1871   -0.7689 H   0  0  0  0  0  0  0  0  0  0  0  0
    0.6401   -9.2625   -2.9226 O   0  0  0  0  0  0  0  0  0  0  0  0
    1.0041   -9.5546   -3.7639 H   0  0  0  0  0  0  0  0  0  0  0  0
    0.1602   -8.4463   -3.0953 H   0  0  0  0  0  0  0  0  0  0  0  0
   -8.8178   12.0214   -1.1658 O   0  0  0  0  0  0  0  0  0  0  0  0
   -9.1336   11.6364   -1.9895 H   0  0  0  0  0  0  0  0  0  0  0  0
   -8.0566   11.5027   -0.8856 H   0  0  0  0  0  0  0  0  0  0  0  0
    8.1892    0.6214   -4.4860 O   0  0  0  0  0  0  0  0  0  0  0  0
    9.0125    0.5004   -4.0031 H   0  0  0  0  0  0  0  0  0  0  0  0
    7.5140    0.8422   -3.8366 H   0  0  0  0  0  0  0  0  0  0  0  0
   -9.2205   -4.7556   -3.2675 O   0  0  0  0  0  0  0  0  0  0  0  0
   -8.5144   -5.3917   -3.1173 H   0  0  0  0  0  0  0  0  0  0  0  0
   -9.2861   -4.6253   -4.2188 H   0  0  0  0  0  0  0  0  0  0  0  0
    1.4839   13.8223   -3.4954 O   0  0  0  0  0  0  0  0  0  0  0  0
    2.1819   13.6659   -4.1391 H   0  0  0  0  0  0  0  0  0  0  0  0
    0.6722   13.9679   -3.9911 H   0  0  0  0  0  0  0  0  0  0  0  0
    2.9605   -5.5165   -5.2970 O   0  0  0  0  0  0  0  0  0  0  0  0
    3.5419   -5.9530   -5.9269 H   0  0  0  0  0  0  0  0  0  0  0  0
    3.3743   -4.6610   -5.0984 H   0  0  0  0  0  0  0  0  0  0  0  0
   -8.3717    4.4726   -6.0011 O   0  0  0  0  0  0  0  0  0  0  0  0
   -7.9581    3.6679   -5.6727 H   0  0  0  0  0  0  0  0  0  0  0  0
   -9.1872    4.5884   -5.5047 H   0  0  0  0  0  0  0  0  0  0  0  0
    7.4692    5.7188   -6.3301 O   0  0  0  0  0  0  0  0  0  0  0  0
    7.2567    5.1292   -5.5995 H   0  0  0  0  0  0  0  0  0  0  0  0
    7.8712    6.5063   -5.9504 H   0  0  0  0  0  0  0  0  0  0  0  0
   -5.6959   -3.9230   -7.5874 O   0  0  0  0  0  0  0  0  0  0  0  0
   -4.9011   -3.7957   -8.1146 H   0  0  0  0  0  0  0  0  0  0  0  0
   -5.6781   -3.2627   -6.8870 H   0  0  0  0  0  0  0  0  0  0  0  0
   -1.1980   10.5073   -6.7447 O   0  0  0  0  0  0  0  0  0  0  0  0
   -1.2082    9.9983   -5.9278 H   0  0  0  0  0  0  0  0  0  0  0  0
   -2.0186   10.3124   -7.2077 H   0  0  0  0  0  0  0  0  0  0  0  0
    5.6696    0.1240   -9.4886 O   0  0  0  0  0  0  0  0  0  0  0  0
    6.1329    0.5325  -10.2261 H   0  0  0  0  0  0  0  0  0  0  0  0
    5.8240    0.6802   -8.7184 H   0  0  0  0  0  0  0  0  0  0  0  0
   -6.4296    0.2478  -10.1788 O   0  0  0  0  0  0  0  0  0  0  0  0
   -5.7098    0.5257   -9.5884 H   0  0  0  0  0  0  0  0  0  0  0  0
   -6.7426    1.0649  -10.5951 H   0  0  0  0  0  0  0  0  0  0  0  0
    2.4865    5.9068   -9.1384 O   0  0  0  0  0  0  0  0  0  0  0  0
    3.2735    5.4007   -8.9135 H   0  0  0  0  0  0  0  0  0  0  0  0
    1.7718    5.5725   -8.5877 H   0  0  0  0  0  0  0  0  0  0  0  0
    0.7871    1.3551  -10.9798 O   0  0  0  0  0  0  0  0  0  0  0  0
    1.1104    1.1169  -10.1048 H   0  0  0  0  0  0  0  0  0  0  0  0
    1.5216    1.7642  -11.4485 H   0  0  0  0  0  0  0  0  0  0  0  0
    3.9244    3.7277   14.4598 O   0  0  0  0  0  0  0  0  0  0  0  0
    4.0851    3.5456   13.5282 H   0  0  0  0  0  0  0  0  0  0  0  0
    3.1639    4.3160   14.5035 H   0  0  0  0  0  0  0  0  0  0  0  0
   -4.1259   -1.7158   11.3448 O   0  0  0  0  0  0  0  0  0  0  0  0
   -3.6049   -1.1983   11.9660 H   0  0  0  0  0  0  0  0  0  0  0  0
   -4.7204   -1.0868   10.9054 H   0  0  0  0  0  0  0  0  0  0  0  0
    0.3326    7.7225   12.8348 O   0  0  0  0  0  0  0  0  0  0  0  0
    1.0069    7.8224   12.1552 H   0  0  0  0  0  0  0  0  0  0  0  0
   -0.4565    8.1690   12.5131 H   0  0  0  0  0  0  0  0  0  0  0  0
    2.2730   -4.1120   10.8625 O   0  0  0  0  0  0  0  0  0  0  0  0
    2.7686   -4.6665   10.2512 H   0  0  0  0  0  0  0  0  0  0  0  0
    2.5893   -3.2109   10.7433 H   0  0  0  0  0  0  0  0  0  0  0  0
   -8.9266    4.4415   10.8117 O   0  0  0  0  0  0  0  0  0  0  0  0
   -8.5259    4.7312    9.9734 H   0  0  0  0  0  0  0  0  0  0  0  0
   -9.7472    4.9362   10.8922 H   0  0  0  0  0  0  0  0  0  0  0  0
    6.6634    6.6660    9.5576 O   0  0  0  0  0  0  0  0  0  0  0  0
    7.4337    6.3430    9.0793 H   0  0  0  0  0  0  0  0  0  0  0  0
    6.9695    6.9662   10.4191 H   0  0  0  0  0  0  0  0  0  0  0  0
   -3.8072   -6.2594    9.3533 O   0  0  0  0  0  0  0  0  0  0  0  0
   -3.6646   -6.1804   10.3016 H   0  0  0  0  0  0  0  0  0  0  0  0
   -4.6337   -5.8090    9.1515 H   0  0  0  0  0  0  0  0  0  0  0  0
   -5.0048   11.3222    8.2565 O   0  0  0  0  0  0  0  0  0  0  0  0
   -5.0822   11.0048    7.3405 H   0  0  0  0  0  0  0  0  0  0  0  0
   -5.9050   11.4594    8.5655 H   0  0  0  0  0  0  0  0  0  0  0  0
   10.5538   -0.3633    7.0828 O   0  0  0  0  0  0  0  0  0  0  0  0
   10.4329   -1.2313    7.4798 H   0  0  0  0  0  0  0  0  0  0  0  0
   10.0937    0.2686    7.6443 H   0  0  0  0  0  0  0  0  0  0  0  0
  -11.3427    0.1262    8.0629 O   0  0  0  0  0  0  0  0  0  0  0  0
  -10.7048   -0.3832    7.5349 H   0  0  0  0  0  0  0  0  0  0  0  0
  -10.8518    0.8674    8.4312 H   0  0  0  0  0  0  0  0  0  0  0  0
    4.0308   13.0787    6.2987 O   0  0  0  0  0  0  0  0  0  0  0  0
    4.4530   12.2129    6.1668 H   0  0  0  0  0  0  0  0  0  0  0  0
    4.5519   13.5256    6.9720 H   0  0  0  0  0  0  0  0  0  0  0  0
    5.4727   -7.0303    7.0964 O   0  0  0  0  0  0  0  0  0  0  0  0
    5.4526   -7.9434    7.3971 H   0  0  0  0  0  0  0  0  0  0  0  0
    4.8218   -6.9751    6.3767 H   0  0  0  0  0  0  0  0  0  0  0  0
  -10.2942   10.4380    7.1495 O   0  0  0  0  0  0  0  0  0  0  0  0
  -10.1508    9.4881    7.0889 H   0  0  0  0  0  0  0  0  0  0  0  0
   -9.9976   10.8182    6.3163 H   0  0  0  0  0  0  0  0  0  0  0  0
   11.2945    5.2746    6.6620 O   0  0  0  0  0  0  0  0  0  0  0  0
   11.4369    4.4480    6.1897 H   0  0  0  0  0  0  0  0  0  0  0  0
   11.2699    5.9728    6.0002 H   0  0  0  0  0  0  0  0  0  0  0  0
   -7.4608   -6.0062    5.1245 O   0  0  0  0  0  0  0  0  0  0  0  0
   -6.7962   -6.7002    5.1703 H   0  0  0  0  0  0  0  0  0  0  0  0
   -7.3610   -5.6038    4.2467 H   0  0  0  0  0  0  0  0  0  0  0  0
   -1.2723   14.0819    4.9968 O   0  0  0  0  0  0  0  0  0  0  0  0
   -0.3317   14.2611    5.0919 H   0  0  0  0  0  0  0  0  0  0  0  0
   -1.5649   13.6707    5.8165 H   0  0  0  0  0  0  0  0  0  0  0  0
    9.3748   -5.2639    3.5722 O   0  0  0  0  0  0  0  0  0  0  0  0
    9.6975   -4.4767    4.0225 H   0  0  0  0  0  0  0  0  0  0  0  0
    8.7981   -5.7253    4.1888 H   0  0  0  0  0  0  0  0  0  0  0  0
  -12.2174    2.5447    3.4847 O   0  0  0  0  0  0  0  0  0  0  0  0
  -11.7011    1.7358    3.5606 H   0  0  0  0  0  0  0  0  0  0  0  0
  -12.5977    2.7167    4.3517 H   0  0  0  0  0  0  0  0  0  0  0  0
    7.8644   13.6135    2.5602 O   0  0  0  0  0  0  0  0  0  0  0  0
    7.8904   13.9359    3.4664 H   0  0  0  0  0  0  0  0  0  0  0  0
    6.9629   13.7380    2.2464 H   0  0  0  0  0  0  0  0  0  0  0  0
   -2.1153  -11.0079    1.6039 O   0  0  0  0  0  0  0  0  0  0  0  0
   -1.3700  -10.6811    1.0898 H   0  0  0  0  0  0  0  0  0  0  0  0
   -2.1620  -10.4752    2.4043 H   0  0  0  0  0  0  0  0  0  0  0  0
  -10.7483   12.6986    0.7920 O   0  0  0  0  0  0  0  0  0  0  0  0
  -10.0876   12.4682    0.1156 H   0  0  0  0  0  0  0  0  0  0  0  0
  -10.7635   13.6593    0.8285 H   0  0  0  0  0  0  0  0  0  0  0  0
   12.5599    0.5669   -0.7812 O   0  0  0  0  0  0  0  0  0  0  0  0
   12.5337   -0.1365   -0.1249 H   0  0  0  0  0  0  0  0  0  0  0  0
   12.7150    1.3875   -0.3029 H   0  0  0  0  0  0  0  0  0  0  0  0
  -10.4878   -3.0005   -1.3988 O   0  0  0  0  0  0  0  0  0  0  0  0
  -10.0034   -3.5897   -1.9990 H   0  0  0  0  0  0  0  0  0  0  0  0
  -11.4172   -3.1009   -1.6246 H   0  0  0  0  0  0  0  0  0  0  0  0
    3.1598   16.5913    0.6742 O   0  0  0  0  0  0  0  0  0  0  0  0
    2.9650   15.6539    0.7743 H   0  0  0  0  0  0  0  0  0  0  0  0
    2.8280   16.8543   -0.1898 H   0  0  0  0  0  0  0  0  0  0  0  0
    6.2324   -8.2526   -1.9939 O   0  0  0  0  0  0  0  0  0  0  0  0
    6.2493   -7.5646   -1.3212 H   0  0  0  0  0  0  0  0  0  0  0  0
    5.3204   -8.3332   -2.2909 H   0  0  0  0  0  0  0  0  0  0  0  0
  -11.7542    7.8186   -2.4102 O   0  0  0  0  0  0  0  0  0  0  0  0
  -11.5417    6.8986   -2.2241 H   0  0  0  0  0  0  0  0  0  0  0  0
  -12.2587    8.1478   -1.6605 H   0  0  0  0  0  0  0  0  0  0  0  0
   10.2874    9.1277   -3.0485 O   0  0  0  0  0  0  0  0  0  0  0  0
   10.9335    8.7838   -2.4246 H   0  0  0  0  0  0  0  0  0  0  0  0
    9.4682    9.2539   -2.5391 H   0  0  0  0  0  0  0  0  0  0  0  0
   -5.0014   -8.2728   -4.4425 O   0  0  0  0  0  0  0  0  0  0  0  0
   -4.2923   -8.9189   -4.5165 H   0  0  0  0  0  0  0  0  0  0  0  0
   -5.1757   -7.9456   -5.3307 H   0  0  0  0  0  0  0  0  0  0  0  0
   -4.1002   14.1584   -3.8301 O   0  0  0  0  0  0  0  0  0  0  0  0
   -4.0920   13.6583   -4.6524 H   0  0  0  0  0  0  0  0  0  0  0  0
   -4.8383   13.8286   -3.3079 H   0  0  0  0  0  0  0  0  0  0  0  0
    9.1351   -3.7553   -7.2377 O   0  0  0  0  0  0  0  0  0  0  0  0
    9.4666   -3.5425   -6.3596 H   0  0  0  0  0  0  0  0  0  0  0  0
    8.6922   -2.9678   -7.5700 H   0  0  0  0  0  0  0  0  0  0  0  0
  -10.3887   -0.3108   -6.8761 O   0  0  0  0  0  0  0  0  0  0  0  0
   -9.5025   -0.6217   -6.6643 H   0  0  0  0  0  0  0  0  0  0  0  0
  -10.4424   -0.2601   -7.8352 H   0  0  0  0  0  0  0  0  0  0  0  0
    6.2428   11.8990   -5.9734 O   0  0  0  0  0  0  0  0  0  0  0  0
    7.1711   11.6617   -6.0619 H   0  0  0  0  0  0  0  0  0  0  0  0
    5.8387   11.8016   -6.8413 H   0  0  0  0  0  0  0  0  0  0  0  0
   -0.9828   -7.6552   -7.6741 O   0  0  0  0  0  0  0  0  0  0  0  0
   -0.1883   -7.8930   -8.1616 H   0  0  0  0  0  0  0  0  0  0  0  0
   -0.9842   -6.6957   -7.5983 H   0  0  0  0  0  0  0  0  0  0  0  0
   -6.8564    8.2015   -9.7657 O   0  0  0  0  0  0  0  0  0  0  0  0
   -7.5635    7.8786   -9.1981 H   0  0  0  0  0  0  0  0  0  0  0  0
   -6.5014    8.9922   -9.3476 H   0  0  0  0  0  0  0  0  0  0  0  0
    8.0644    4.7712   -8.9607 O   0  0  0  0  0  0  0  0  0  0  0  0
    8.9573    4.4457   -8.8118 H   0  0  0  0  0  0  0  0  0  0  0  0
    7.7674    5.1299   -8.1092 H   0  0  0  0  0  0  0  0  0  0  0  0
   -8.1487   -4.7300   -8.7970 O   0  0  0  0  0  0  0  0  0  0  0  0
   -7.3087   -4.5529   -8.3420 H   0  0  0  0  0  0  0  0  0  0  0  0
   -8.2001   -4.0872   -9.5113 H   0  0  0  0  0  0  0  0  0  0  0  0
    1.2447   11.2025   -8.0805 O   0  0  0  0  0  0  0  0  0  0  0  0
    1.3946   10.3886   -8.5716 H   0  0  0  0  0  0  0  0  0  0  0  0
    0.4122   11.0736   -7.5985 H   0  0  0  0  0  0  0  0  0  0  0  0
    2.3553   -4.4739  -10.2831 O   0  0  0  0  0  0  0  0  0  0  0  0
    3.0142   -3.8184  -10.0329 H   0  0  0  0  0  0  0  0  0  0  0  0
    1.6910   -4.0172  -10.8087 H   0  0  0  0  0  0  0  0  0  0  0  0
   -7.1153    2.8989  -11.1156 O   0  0  0  0  0  0  0  0  0  0  0  0
   -6.4811    3.4681  -11.5628 H   0  0  0  0  0  0  0  0  0  0  0  0
   -7.5939    3.4490  -10.4871 H   0  0  0  0  0  0  0  0  0  0  0  0
    4.9023    4.3239  -13.5301 O   0  0  0  0  0  0  0  0  0  0  0  0
    5.6069    4.3709  -12.8760 H   0  0  0  0  0  0  0  0  0  0  0  0
    4.3715    5.1201  -13.4272 H   0  0  0  0  0  0  0  0  0  0  0  0
   -0.7901   -0.5050  -12.4420 O   0  0  0  0  0  0  0  0  0  0  0  0
   -0.2602    0.1296  -11.9293 H   0  0  0  0  0  0  0  0  0  0  0  0
   -1.5591   -0.0192  -12.7543 H   0  0  0  0  0  0  0  0  0  0  0  0
  1  2  1  0  0  0  0
  2  3  4  0  0  0  0
  3  4  1  0  0  0  0
  4  5  4  0  0  0  0
  4  6  1  0  0  0  0
  6  7  2  0  0  0  0
  2  8  1  0  0  0  0
  7  8  1  0  0  0  0
  3  9  4  0  0  0  0
  1 10  1  0  0  0  0
  1 11  1  0  0  0  0
  1 12  1  0  0  0  0
  6 13  1  0  0  0  0
  7 14  1  0  0  0  0
  5 15  1  0  0  0  0
  9 15  1  0  0  0  0
 16 17  1  0  0  0  0
 17 18  4  0  0  0  0
 18 19  1  0  0  0  0
 15 20  1  0  0  0  0
 19 20  4  0  0  0  0
 19 21  1  0  0  0  0
 21 22  2  0  0  0  0
 17 23  1  0  0  0  0
 22 23  1  0  0  0  0
 15 24  1  0  0  0  0
 18 24  4  0  0  0  0
 16 25  1  0  0  0  0
 16 26  1  0  0  0  0
 16 27  1  0  0  0  0
 21 28  1  0  0  0  0
 22 29  1  0  0  0  0
 30 31  1  0  0  0  0
 31 32  4  0  0  0  0
 32 33  1  0  0  0  0
 15 34  1  0  0  0  0
 33 34  4  0  0  0  0
 33 35  1  0  0  0  0
 35 36  2  0  0  0  0
 31 37  1  0  0  0  0
 36 37  1  0  0  0  0
 15 38  1  0  0  0  0
 32 38  4  0  0  0  0
 30 39  1  0  0  0  0
 30 40  1  0  0  0  0
 30 41  1  0  0  0  0
 35 42  1  0  0  0  0
 36 43  1  0  0  0  0
 44 45  1  0  0  0  0
 44 46  1  0  0  0  0
 47 48  1  0  0  0  0
 47 49  1  0  0  0  0
 50 51  1  0  0  0  0
 50 52  1  0  0  0  0
 53 54  1  0  0  0  0
 53 55  1  0  0  0  0
 56 57  1  0  0  0  0
 56 58  1  0  0  0  0
 59 60  1  0  0  0  0
 59 61  1  0  0  0  0
 62 63  1  0  0  0  0
 62 64  1  0  0  0  0
 65 66  1  0  0  0  0
 65 67  1  0  0  0  0
 68 69  1  0  0  0  0
 68 70  1  0  0  0  0
 71 72  1  0  0  0  0
 71 73  1  0  0  0  0
 74 75  1  0  0  0  0
 74 76  1  0  0  0  0
 77 78  1  0  0  0  0
 77 79  1  0  0  0  0
 80 81  1  0  0  0  0
 80 82  1  0  0  0  0
 83 84  1  0  0  0  0
 83 85  1  0  0  0  0
 86 87  1  0  0  0  0
 86 88  1  0  0  0  0
 89 90  1  0  0  0  0
 89 91  1  0  0  0  0
 92 93  1  0  0  0  0
 92 94  1  0  0  0  0
 95 96  1  0  0  0  0
 95 97  1  0  0  0  0
 98 99  1  0  0  0  0
 98100  1  0  0  0  0
101102  1  0  0  0  0
101103  1  0  0  0  0
104105  1  0  0  0  0
104106  1  0  0  0  0
107108  1  0  0  0  0
107109  1  0  0  0  0
110111  1  0  0  0  0
110112  1  0  0  0  0
113114  1  0  0  0  0
113115  1  0  0  0  0
116117  1  0  0  0  0
116118  1  0  0  0  0
119120  1  0  0  0  0
119121  1  0  0  0  0
122123  1  0  0  0  0
122124  1  0  0  0  0
125126  1  0  0  0  0
125127  1  0  0  0  0
128129  1  0  0  0  0
128130  1  0  0  0  0
131132  1  0  0  0  0
131133  1  0  0  0  0
134135  1  0  0  0  0
134136  1  0  0  0  0
137138  1  0  0  0  0
137139  1  0  0  0  0
140141  1  0  0  0  0
140142  1  0  0  0  0
143144  1  0  0  0  0
143145  1  0  0  0  0
146147  1  0  0  0  0
146148  1  0  0  0  0
149150  1  0  0  0  0
149151  1  0  0  0  0
152153  1  0  0  0  0
152154  1  0  0  0  0
155156  1  0  0  0  0
155157  1  0  0  0  0
158159  1  0  0  0  0
158160  1  0  0  0  0
161162  1  0  0  0  0
161163  1  0  0  0  0
164165  1  0  0  0  0
164166  1  0  0  0  0
167168  1  0  0  0  0
167169  1  0  0  0  0
170171  1  0  0  0  0
170172  1  0  0  0  0
173174  1  0  0  0  0
173175  1  0  0  0  0
176177  1  0  0  0  0
176178  1  0  0  0  0
179180  1  0  0  0  0
179181  1  0  0  0  0
182183  1  0  0  0  0
182184  1  0  0  0  0
185186  1  0  0  0  0
185187  1  0  0  0  0
188189  1  0  0  0  0
188190  1  0  0  0  0
191192  1  0  0  0  0
191193  1  0  0  0  0
194195  1  0  0  0  0
194196  1  0  0  0  0
197198  1  0  0  0  0
197199  1  0  0  0  0
200201  1  0  0  0  0
200202  1  0  0  0  0
203204  1  0  0  0  0
203205  1  0  0  0  0
206207  1  0  0  0  0
206208  1  0  0  0  0
209210  1  0  0  0  0
209211  1  0  0  0  0
212213  1  0  0  0  0
212214  1  0  0  0  0
215216  1  0  0  0  0
215217  1  0  0  0  0
218219  1  0  0  0  0
218220  1  0  0  0  0
221222  1  0  0  0  0
221223  1  0  0  0  0
224225  1  0  0  0  0
224226  1  0  0  0  0
227228  1  0  0  0  0
227229  1  0  0  0  0
230231  1  0  0  0  0
230232  1  0  0  0  0
233234  1  0  0  0  0
233235  1  0  0  0  0
236237  1  0  0  0  0
236238  1  0  0  0  0
239240  1  0  0  0  0
239241  1  0  0  0  0
242243  1  0  0  0  0
242244  1  0  0  0  0
245246  1  0  0  0  0
245247  1  0  0  0  0
248249  1  0  0  0  0
248250  1  0  0  0  0
251252  1  0  0  0  0
251253  1  0  0  0  0
254255  1  0  0  0  0
254256  1  0  0  0  0
257258  1  0  0  0  0
257259  1  0  0  0  0
260261  1  0  0  0  0
260262  1  0  0  0  0
263264  1  0  0  0  0
263265  1  0  0  0  0
266267  1  0  0  0  0
266268  1  0  0  0  0
269270  1  0  0  0  0
269271  1  0  0  0  0
272273  1  0  0  0  0
272274  1  0  0  0  0
275276  1  0  0  0  0
275277  1  0  0  0  0
278279  1  0  0  0  0
278280  1  0  0  0  0
281282  1  0  0  0  0
281283  1  0  0  0  0
284285  1  0  0  0  0
284286  1  0  0  0  0
287288  1  0  0  0  0
287289  1  0  0  0  0
290291  1  0  0  0  0
290292  1  0  0  0  0
293294  1  0  0  0  0
293295  1  0  0  0  0
296297  1  0  0  0  0
296298  1  0  0  0  0
299300  1  0  0  0  0
299301  1  0  0  0  0
302303  1  0  0  0  0
302304  1  0  0  0  0
305306  1  0  0  0  0
305307  1  0  0  0  0
308309  1  0  0  0  0
308310  1  0  0  0  0
311312  1  0  0  0  0
311313  1  0  0  0  0
314315  1  0  0  0  0
314316  1  0  0  0  0
317318  1  0  0  0  0
317319  1  0  0  0  0
320321  1  0  0  0  0
320322  1  0  0  0  0
323324  1  0  0  0  0
323325  1  0  0  0  0
326327  1  0  0  0  0
326328  1  0  0  0  0
329330  1  0  0  0  0
329331  1  0  0  0  0
332333  1  0  0  0  0
332334  1  0  0  0  0
M  CHG  1   1  -1
M  END
