55
Molecule with added oxygen and hydrogen atoms
Mn         0.00001        0.00002       -0.00017
O         -0.77934        2.00210        0.43938
H         -1.45350        2.22597        1.09631
O         -1.56486       -0.27635       -1.51107
H         -1.70078       -1.05944       -2.06294
O          1.32473        0.84883       -1.52733
H          2.22712        1.17054       -1.39220
O          0.77686       -2.00331       -0.43808
H          0.51396       -2.82949       -0.00795
O          1.56619        0.27819        1.50927
H          1.69956        1.06022        2.06345
O         -1.32364       -0.84947        1.52791
H         -2.22623       -1.17101        1.39366
H         -1.11621       -0.97461        2.46461
H         -2.25128        0.36138       -1.75246
H         -0.51481        2.82967        0.01360
H          2.25531       -0.35787        1.74814
H          1.11823        0.97372       -2.46425
H          1.44902       -2.22940       -1.09642
O 1.5986284025077488 -1.631578947367423e-05 3.6668487719298244
H 1.8062202347009144 0.7349610838560373 4.142993553710542
H 1.8062202347009144 -0.7349937154349847 4.142993553710542
O -1.9508767811771002 -1.7871956474433048 3.000182105263158
H -1.7077453138714052 -2.561224047907379 3.3897551085382904
H -2.700685513795636 -1.4773251267283156 3.3897551085382904
O 0.2840580811575448 3.2364751067317803 2.333515438596491
H -0.41122032390120106 3.721014266394981 2.6365166633660384
H 1.053106078532785 3.5925024027657875 2.6365166633660384
O 2.212446019328596 -2.8857370257227197 1.6668487719298246
H 3.0830253922122175 -2.8132811750311806 1.8832782181937873
H 1.916468159130027 -3.7076587988022207 1.8832782181937873
O -3.8137610346756725 0.6745874772395412 1.0001821052631579
H -4.437029268750196 0.03844779563024292 1.1300397730215355
H -4.1809896748402515 1.4859321092962456 1.1300397730215355
O 3.3632998343165337 2.1394283513580445 0.33351543859649146
H 3.4055647945681353 3.037392718650269 0.37680132784928405
H 4.194530771440315 1.7971105736135702 0.37680132784928405
O -1.0347874279443678 -3.8494405367658424 -0.3331512280701753
H -0.45938607956852484 -4.540121085267722 -0.3764371173229678
H -1.8789435878948852 -4.1585144913611645 -0.3764371173229678
O -1.7850673361280354 3.437056671295335 -0.9998178947368417
H -2.669128879804245 3.544630706811309 -1.1296755624952193
H -1.3646198021119016 4.222143199815667 -1.1296755624952193
O 3.4156130963189093 -1.247386205257621 -1.6664845614035093
H 4.111279964100871 -0.7189868261320308 -1.882914007667472
H 3.607028682305253 -2.099746673739929 -1.882914007667472
O -3.00311745166759 -1.2396669305724821 -2.3331512280701747
H -3.112662266795436 -2.0800181614674935 -2.636152452839722
H -3.673532940633398 -0.7212719750193918 -2.636152452839722
O 1.1214089918243566 2.396331323300661 -2.999817894736842
H 0.6013360039244098 3.0190326661416855 -3.3893908980119747
H 1.9327244447498892 2.3959982115607144 -3.3893908980119747
O 0.47845622524467496 -1.5253531046516682 -3.666484561403509
H 1.2418741749895823 -1.5034629061538245 -4.142629343184227
H -0.16070395296831425 -1.9433966590449065 -4.142629343184227
