64
Molecule with added oxygen and hydrogen atoms
Mn         0.00001        0.00002       -0.00017
O         -0.77934        2.00210        0.43938
H         -1.45350        2.22597        1.09631
O         -1.56486       -0.27635       -1.51107
H         -1.70078       -1.05944       -2.06294
O          1.32473        0.84883       -1.52733
H          2.22712        1.17054       -1.39220
O          0.77686       -2.00331       -0.43808
H          0.51396       -2.82949       -0.00795
O          1.56619        0.27819        1.50927
H          1.69956        1.06022        2.06345
O         -1.32364       -0.84947        1.52791
H         -2.22623       -1.17101        1.39366
H         -1.11621       -0.97461        2.46461
H         -2.25128        0.36138       -1.75246
H         -0.51481        2.82967        0.01360
H          2.25531       -0.35787        1.74814
H          1.11823        0.97372       -2.46425
H          1.44902       -2.22940       -1.09642
O 1.7950728304483436 -1.631578947367423e-05 4.666848771929825
H 1.9815541484080716 0.7349610838560373 5.151650731561101
H 1.9815541484080716 -0.7349937154349847 5.151650731561101
O -2.2120887394981184 -2.0264871985740425 4.000182105263158
H -1.945425846219672 -2.778958885258506 4.415726642089966
H -2.9383660461439027 -1.6950599640794424 4.415726642089966
O 0.3258343338190254 3.7124939585279844 3.3335154385964922
H -0.3724810570807263 4.1624282309440845 3.6798025526188325
H 1.09184534535326 4.033916367314891 3.6798025526188325
O 2.5734257834545318 -3.3565712054307033 2.6668487719298244
H 3.424045797291539 -3.258081905282614 2.9438784631476964
H 2.257488564209348 -4.152459529053655 2.9438784631476964
O -4.512506189564892 0.7981856565187807 2.0001821052631583
H -5.10931466915261 0.1573656169050489 2.2079543736765626
H -4.8532750752426645 1.6048499305710515 2.2079543736765626
O 4.066027493054581 2.5864461657884523 1.3335154385964914
H 4.093946523435067 3.475284826788606 1.4720302842054274
H 4.882912500307246 2.2350026817519066 1.4720302842054274
O -1.2864139198516265 -4.785478544453511 0.666848771929825
H -0.7102775938265551 -5.473425012734886 0.7361061947342931
H -2.1298351021529154 -5.091818418828328 0.7361061947342931
O -2.3045172288299884 4.437225830436808 0.00018210526315819018
H -3.1961810128070827 4.559437517045127 0.00018210526315822197
H -1.891671935114739 5.236950010049485 0.00018210526315822197
O 4.654689550395055 -1.699894938976314 -0.6664845614035086
H 5.3903710356007055 -1.1861088339558572 -0.7357419842079767
H 4.886119753805088 -2.566868681563755 -0.7357419842079767
O -4.454351667772769 -1.8387153185656644 -1.3331512280701752
H -4.63666356503091 -2.7091037431578515 -1.4716660736791112
H -5.197534238868872 -1.35035755670975 -1.4716660736791112
O 1.9423242500478213 4.150579547712367 -1.9998178947368412
H 1.4784087283334484 4.893286133916387 -2.207590163150245
H 2.8097971691589274 4.2702516793354155 -2.207590163150245
O 1.2658467349414948 -4.035678124736678 -2.66648456140351
H 2.0986378636966574 -4.234960552588288 -2.9435142526213824
H 0.6960597357387611 -4.67489430547937 -2.9435142526213824
O -3.224433905101565 1.8686194109929672 -3.333151228070176
H -3.9279329777393777 1.4268340678003526 -3.6794383420925163
H -3.190886497305862 2.6986554379774996 -3.6794383420925163
O 2.9300452156213836 0.6441419713342396 -3.999817894736842
H 3.076620499498001 1.4288957059987408 -4.415362431563651
H 3.3922483547181965 -0.006773534797274827 -4.415362431563651
O -1.0323710257133951 -1.468483318875963 -4.666484561403509
H -0.5383645219460453 -2.0437438113254567 -5.151286521034785
H -1.740879317367556 -1.1983295467479826 -5.151286521034785
