64
Molecule with added oxygen and hydrogen atoms
Mn         0.00001        0.00002       -0.00017
O         -0.77934        2.00210        0.43938
H         -1.45350        2.22597        1.09631
O         -1.56486       -0.27635       -1.51107
H         -1.70078       -1.05944       -2.06294
O          1.32473        0.84883       -1.52733
H          2.22712        1.17054       -1.39220
O          0.77686       -2.00331       -0.43808
H          0.51396       -2.82949       -0.00795
O          1.56619        0.27819        1.50927
H          1.69956        1.06022        2.06345
O         -1.32364       -0.84947        1.52791
H         -2.22623       -1.17101        1.39366
H         -1.11621       -0.97461        2.46461
H         -2.25128        0.36138       -1.75246
H         -0.51481        2.82967        0.01360
H          2.25531       -0.35787        1.74814
H          1.11823        0.97372       -2.46425
H          1.44902       -2.22940       -1.09642
O 1.7950728304483436 -1.631578947367423e-05 4.666848771929825
H 1.0623688639276563 0.5226163443503721 4.666848771929825
H 2.527776796969031 -0.5226489759293195 4.666848771929825
O -2.2120887394981184 -2.0264871985740425 4.000182105263158
H -1.318782348352677 -1.9169258388768045 4.000182105263158
H -3.1053951306435597 -2.1360485582712805 4.000182105263158
O 0.3258343338190254 3.7124939585279844 3.3335154385964922
H -0.258854362498502 3.028287024626763 3.3335154385964922
H 0.9105230301365528 4.396700892429205 3.3335154385964922
O 2.5734257834545318 -3.3565712054307033 2.6668487719298244
H 2.5423818883665508 -2.4571067666796393 2.6668487719298244
H 2.6044696785425128 -4.256035644181767 2.6668487719298244
O -4.512506189564892 0.7981856565187807 2.0001821052631583
H -3.8820358890629554 0.15591842227356567 2.0001821052631583
H -5.142976490066828 1.4404528907639957 2.0001821052631583
O 4.066027493054581 2.5864461657884523 1.3335154385964914
H 3.167293031856932 2.63415746692111 1.3335154385964914
H 4.96476195425223 2.538734864655795 1.3335154385964914
O -1.2864139198516265 -4.785478544453511 0.666848771929825
H -0.5914865776662962 -4.21357296738398 0.666848771929825
H -1.9813412620369566 -5.357384121523042 0.666848771929825
O -2.3045172288299884 4.437225830436808 0.00018210526315819018
H -2.430618356938633 3.546103781843167 0.00018210526315819018
H -2.178416100721344 5.328347879030449 0.00018210526315819018
O 4.654689550395055 -1.699894938976314 -0.6664845614035086
H 4.145728302925488 -0.9576291856411475 -0.6664845614035086
H 5.163650797864622 -2.4421606923114805 -0.6664845614035086
O -4.454351667772769 -1.8387153185656644 -1.3331512280701752
H -3.577666171600169 -2.042240601517447 -1.3331512280701752
H -5.331037163945368 -1.6351900356138815 -1.3331512280701752
O 1.9423242500478213 4.150579547712367 -1.9998178947368412
H 1.1584042960367358 3.7084602134786584 -1.9998178947368412
H 2.726244204058907 4.592698881946075 -1.9998178947368412
O 1.2658467349414948 -4.035678124736678 -2.66648456140351
H 1.5452375927536226 -3.180142766863607 -2.66648456140351
H 0.986455877129367 -4.891213482609748 -2.66648456140351
O -3.224433905101565 1.8686194109929672 -3.333151228070176
H -2.852542197831005 1.049048451244278 -3.333151228070176
H -3.5963256123721252 2.6881903707416566 -3.333151228070176
O 2.9300452156213836 0.6441419713342396 -3.999817894736842
H 2.102211615895824 0.9972588516521053 -3.999817894736842
H 3.757878815346943 0.29102509101637386 -3.999817894736842
O -1.0323710257133951 -1.468483318875963 -4.666484561403509
H -0.18342526765359946 -1.1696671548682593 -4.666484561403509
H -1.8813167837731908 -1.7672994828836666 -4.666484561403509
