115
Molecule with added oxygen and hydrogen atoms
Fe        -0.00002        0.00001       -0.00000
O          1.72155        0.81992        0.97593
H          1.85583        0.88747        1.93332
O         -0.92509        1.93971       -0.00179
H         -1.69931        2.20996       -0.51820
O          0.90273        0.42761       -1.86045
H          1.51428       -0.14622       -2.34709
O         -1.72150       -0.82004       -0.97594
H         -2.50975       -1.19097       -0.55151
O          0.92510       -1.93968        0.00182
H          1.69950       -2.20980        0.51802
O         -0.90274       -0.42761        1.86045
H         -1.51415        0.14626        2.34722
H         -0.84597       -1.26402        2.34757
H         -0.64682        2.71348        0.51101
H          2.50939        1.19173        0.55145
H          0.64674       -2.71354       -0.51081
H          0.84583        1.26394       -2.34771
H         -1.85564       -0.88781       -1.93334
O 1.6676710192774211 2.105263157898011e-05 4.002412867318443
H 2.5676710192774213 2.105263157898011e-05 4.002412867318443
H 1.37465968026598 0.8509877706709642 4.002412867318443
O -2.0429169982078603 -1.8714563357046976 3.3353436175022115
H -1.1429169982078604 -1.8714563357046976 3.3353436175022115
H -2.3359283372193014 -1.0204896176653124 3.3353436175022115
O 0.29879392016074663 3.4046476498538967 2.66827436768598
H 1.1987939201607467 3.4046476498538967 2.66827436768598
H 0.005782581149305632 4.255614367893282 2.66827436768598
O 2.3403634124747956 -3.052571331401808 2.001205117869748
H 3.2403634124747955 -3.052571331401808 2.001205117869748
H 2.0473520734633546 -2.2016046133624227 2.001205117869748
O -4.062531594497288 0.7186253171823144 1.334135868053517
H -3.162531594497288 0.7186253171823144 1.334135868053517
H -4.355542933508729 1.5695920352216994 1.334135868053517
O 3.6149238735073586 2.2995410590869736 0.6670666182372846
H 4.5149238735073585 2.2995410590869736 0.6670666182372846
H 3.3219125344959175 3.150507777126359 0.6670666182372846
O -1.125633423241222 -4.187271343668917 -2.6315789471318474e-06
H -0.22563342324122193 -4.187271343668917 -2.6315789471318474e-06
H -1.418644762252663 -3.3363046256295323 -2.6315789471318474e-06
O -1.9746798200911526 3.8021428306182194 -0.667071881395179
H -1.0746798200911525 3.8021428306182194 -0.667071881395179
H -2.2676911591025934 4.653109548657604 -0.667071881395179
O 3.8752575749269473 -1.4152175671849898 -1.3341411312114113
H 4.775257574926948 -1.4152175671849898 -1.3341411312114113
H 3.5822462359155063 -0.5642508491456046 -1.3341411312114113
O -3.5555055498966825 -1.467639083392635 -2.0012103810276427
H -2.6555055498966826 -1.467639083392635 -2.0012103810276427
H -3.8485168889081236 -0.6166723653532498 -2.0012103810276427
O 1.4485818112232494 3.095560741961962 -2.6682796308438745
H 2.3485818112232493 3.095560741961962 -2.6682796308438745
H 1.1555704722118083 3.946527460001347 -2.6682796308438745
O 0.829177810067499 -2.643535177691786 -3.335348880660106
H 1.729177810067499 -2.643535177691786 -3.335348880660106
H 0.5361664710560581 -1.792568459652401 -3.335348880660106
O -1.4428915868198562 0.8362050002938024 -4.002418130476339
H -0.5428915868198562 0.8362050002938024 -4.002418130476339
H -1.7359029258312972 1.6871717183331876 -4.002418130476339
O 2.252209654704757 0.16586423745282325 6.281907414146027
H 3.152209654704757 0.16586423745282325 6.281907414146027
H 1.9591983156933162 1.0168309554922084 6.281907414146027
O -2.5075744342061674 -2.2497799816266117 5.5839174090654735
H -1.6075744342061675 -2.2497799816266117 5.5839174090654735
H -2.8005857732176085 -1.3988132635872266 5.5839174090654735
O 0.5212786326296928 4.6316212888206145 4.885927403984922
H 1.4212786326296927 4.6316212888206145 4.885927403984922
H 0.22826729361825177 5.4825880068599995 4.885927403984922
O 3.257350710178573 -3.9140510454062434 4.187937398904369
H 4.157350710178573 -3.9140510454062434 4.187937398904369
H 2.964339371167132 -3.063084327366858 4.187937398904369
O -5.422642661078821 1.147934613777623 3.4899473938238157
H -4.52264266107882 1.147934613777623 3.4899473938238157
H -5.715654000090262 1.9989013318170081 3.4899473938238157
O 5.204097653272093 3.393999526753198 2.791957388743263
H 6.104097653272094 3.393999526753198 2.791957388743263
H 4.911086314260652 4.244966244792583 2.791957388743263
O -1.503969705461838 -5.910025714064535 2.0939673836627106
H -0.6039697054618379 -5.910025714064535 2.0939673836627106
H -1.796981044473279 -5.05905899602515 2.0939673836627106
O -2.858379126587309 5.918566281017274 1.3959773785821579
H -1.958379126587309 5.918566281017274 1.3959773785821579
H -3.15139046559875 6.769532999056659 1.3959773785821579
O 6.323302930618076 -2.096155272928428 0.6979873735016064
H 7.223302930618076 -2.096155272928428 0.6979873735016064
H 6.030291591606635 -1.2451885548890427 0.6979873735016064
O -5.999891684544314 -2.3642000777015193 -2.631578946777337e-06
H -5.099891684544314 -2.3642000777015193 -2.631578946777337e-06
H -6.2929030235557555 -1.5132333596621341 -2.631578946777337e-06
O 2.9242245654927292 6.1383361731096455 -0.6979926366595001
H 3.824224565492729 6.1383361731096455 -0.6979926366595001
H 2.631213226481288 6.9893028911490305 -0.6979926366595001
O 2.069402068855002 -6.0193085612182635 -1.3959826417400516
H 2.969402068855002 -6.0193085612182635 -1.3959826417400516
H 1.7763907298435608 -5.168341843178879 -1.3959826417400516
O -5.314204220167557 3.3205186124960626 -2.0939726468206055
H -4.414204220167557 3.3205186124960626 -2.0939726468206055
H -5.607215559178998 4.171485330535448 -2.0939726468206055
O 6.003544013931504 1.4572880093141194 -2.791962651901158
H 6.903544013931504 1.4572880093141194 -2.791962651901158
H 5.710532674920063 2.3082547273535043 -2.791962651901158
O -3.113331235244319 -4.446524571799507 -3.4899526569817114
H -2.2133312352443193 -4.446524571799507 -3.4899526569817114
H -3.4063425742557603 -3.5955578537601225 -3.4899526569817114
O -0.5313197642643555 5.2642529718673154 -4.187942662062262
H 0.36868023573564457 5.2642529718673154 -4.187942662062262
H -0.8243311032757965 6.1152196899067 -4.187942662062262
O 3.557217715970045 -2.7231413047557678 -4.885932667142815
H 4.457217715970045 -2.7231413047557678 -4.885932667142815
H 3.264206376958604 -1.8721745867163826 -4.885932667142815
O -3.4437248527862945 0.018106129236432733 -5.583922672223367
H -2.5437248527862946 0.018106129236432733 -5.583922672223367
H -3.7367361917977355 0.8690728472758179 -5.583922672223367
O 1.6340970923318359 1.6632826729235781 -6.281912677303921
H 2.534097092331836 1.6632826729235781 -6.281912677303921
H 1.3410857533203948 2.5142493909629633 -6.281912677303921
