124
Molecule with added oxygen and hydrogen atoms
C            1.69283819520408       -0.50873499888011       -0.74789918582554
C            2.38953525841761       -1.46167511408154       -0.06991827859433
O            1.94278661783758       -2.02843463450573        1.05610947773076
C            0.71795112253692       -1.64808018498069        1.54599769341570
C           -0.08826861003308       -0.69304288468191        0.96175075838015
C            0.42678424661119       -0.05130554616174       -0.27378778641513
O           -0.25638554404881        0.83634376280340       -0.83706688143773
O           -1.22457776883248       -0.33091178097118        1.40962474449280
C            3.74300496994456       -1.98120477709159       -0.49432100648433
O            4.56530203643086       -1.00294713929943       -1.08480954363214
H            2.10687033135736       -0.09356553537878       -1.65411777801662
H            0.46116217035264       -2.19077232137854        2.44170437337203
H            4.22984556103937       -2.43168508273702        0.38219326320602
H            3.62456723093969       -2.75734652560209       -1.25774997532322
H            4.65213298329259       -0.25308478216584       -0.47972005019842
Fe          -2.00069768387372        1.22935891078257        0.09404858570999
C           -3.77448611932174        2.84701867898935       -3.31483973758832
C           -4.43143764808086        2.23287948344948       -4.33763661028008
O           -4.61282704835258        0.90865912018300       -4.39459030478299
C           -4.12853708033404        0.13006571330877       -3.37416535470335
C           -3.44412920635805        0.62175551756631       -2.28122755585724
C           -3.23294807032113        2.09063889542995       -2.23262953261143
O           -2.61190443978140        2.59108362745558       -1.26520211588353
O           -2.98720811606769       -0.09299554465165       -1.33111990399045
C           -5.00962676231890        2.96221168968438       -5.52647007042891
O           -4.12123727832949        3.89481640269166       -6.10220967916282
H           -3.65847884209432        3.92008446215523       -3.32920576988661
H           -4.35505918435753       -0.91320743176950       -3.52615684080076
H           -5.32959609968740        2.21601837575519       -6.26650710646604
H           -5.88153301608689        3.54925195597744       -5.22244881071768
H           -3.29486694673598        3.44769155566325       -6.33136559043189
C           -1.67260741062999        3.86936794431393        3.30462125496916
C           -2.61094819167011        4.28173821274542        4.20021586107090
O           -3.88833001430748        3.89028940275517        4.14921559185610
C           -4.27232649473470        3.01465612924343        3.16415989695573
C           -3.42370814265853        2.51148826675036        2.19947909296932
C           -2.01452846570572        2.97601351630595        2.24510551554423
O           -1.20307674919813        2.56793664252276        1.38124920168400
O           -3.76838472015852        1.69341569457341        1.28573919793986
C           -2.32960310553030        5.22499111007756        5.34638812082559
O           -1.34364610405192        6.18736573834433        5.06069851446126
H           -0.65580060746998        4.21793897888066        3.40293951430592
H           -5.31654723707285        2.75821783816835        3.24496232362422
H           -3.27488809949770        5.70122573608287        5.64264266338683
H           -1.94601883092219        4.66394916883683        6.20505408028326
H           -1.59976589534126        6.67951183284482        4.26832019334299
O 0.8169580738723137 1.636456306087045 8.371828224907071
H 1.7169580738723136 1.636456306087045 8.371828224907071
H 0.5239467348608726 2.4874230241264303 8.371828224907071
O -4.606678446729051 -1.12565023256907 7.697311626827561
H -3.706678446729051 -1.12565023256907 7.697311626827561
H -4.899689785740492 -0.27468351452968487 7.697311626827561
O -1.1395506546136902 6.786732136193924 7.022795028748052
H -0.23955065461369018 6.786732136193924 7.022795028748052
H -1.4325619936251313 7.637698854233309 7.022795028748052
O 2.050409513956517 -3.113832259577529 6.348278430668543
H 2.950409513956517 -3.113832259577529 6.348278430668543
H 1.757398174945076 -2.262865541538144 6.348278430668543
O -8.124778918483665 2.7920928772410853 5.673761832589034
H -7.224778918483665 2.7920928772410853 5.673761832589034
H -8.417790257495106 3.6430595952804703 5.673761832589034
O 4.451658469534623 5.48064954876452 4.999245234509524
H 5.351658469534623 5.48064954876452 4.999245234509524
H 4.158647130523182 6.331616266803905 4.999245234509524
O -3.562965010661112 -5.697116967163982 4.324728636430015
H -2.6629650106611122 -5.697116967163982 4.324728636430015
H -3.855976349672553 -4.846150249124597 4.324728636430015
O -5.253582706354601 8.687481426738364 3.6502120383505052
H -4.353582706354601 8.687481426738364 3.6502120383505052
H -5.546594045366042 9.53844814477775 3.6502120383505052
O 6.135885936420555 -1.1855901484161966 2.9756954402709948
H 7.035885936420556 -1.1855901484161966 2.9756954402709948
H 5.842874597409114 -0.3346234303768114 2.9756954402709948
O -9.39758794889824 -1.585763537991972 2.301178842191487
H -8.49758794889824 -1.585763537991972 2.301178842191487
H -9.69059928790968 -0.7347968199525867 2.301178842191487
O 2.0556658777053793 9.430340368136573 1.626662244111975
H 2.9556658777053793 9.430340368136573 1.626662244111975
H 1.7626545386939383 10.281307086175959 1.626662244111975
O 1.0152589896482764 -6.674454930423451 0.9521456460324677
H 1.9152589896482763 -6.674454930423451 0.9521456460324677
H 0.7222476506368354 -5.823488212384066 0.9521456460324677
O -9.172725505603566 6.029903672348171 0.27762904795295695
H -8.272725505603566 6.029903672348171 0.27762904795295695
H -9.465736844615007 6.880870390387556 0.27762904795295695
O 6.966307526560487 3.5178768216835516 -0.39688755012655286
H 7.866307526560488 3.5178768216835516 -0.39688755012655286
H 6.673296187549046 4.368843539722937 -0.39688755012655286
O -6.601010698486048 -5.488988990774709 -1.0714041482060639
H -5.701010698486048 -5.488988990774709 -1.0714041482060639
H -6.894022037497489 -4.638022272735324 -1.0714041482060639
O -2.6973881835566695 10.1701492154669 -1.745920746285571
H -1.7973881835566696 10.1701492154669 -1.745920746285571
H -2.9903995225681106 11.021115933506286 -1.745920746285571
O 4.865864688261876 -3.805857885424191 -2.420437344365081
H 5.7658646882618765 -3.805857885424191 -2.420437344365081
H 4.572853349250435 -2.9548911673848055 -2.420437344365081
O -9.811136995759352 1.2965504924736742 -3.094953942444593
H -8.911136995759351 1.2965504924736742 -3.094953942444593
H -10.104148334770793 2.147517210513059 -3.094953942444593
O 4.040299331459313 7.24089654278837 -3.769470540524102
H 4.940299331459314 7.24089654278837 -3.769470540524102
H 3.7472879924478724 8.091863260827756 -3.769470540524102
O -1.9423225663490635 -5.949368593846014 -4.443987138603612
H -1.0423225663490636 -5.949368593846014 -4.443987138603612
H -2.2353339053605046 -5.098401875806629 -4.443987138603612
O -6.180482221563621 7.135533260995329 -5.1185037366831185
H -5.280482221563621 7.135533260995329 -5.1185037366831185
H -6.473493560575062 7.986499979034714 -5.1185037366831185
O 4.983852421751982 0.7517454886144517 -5.793020334762631
H 5.883852421751983 0.7517454886144517 -5.793020334762631
H 4.690841082740541 1.6027122066538368 -5.793020334762631
O -6.504993344826628 -1.7821910356773345 -6.467536932842141
H -5.604993344826628 -1.7821910356773345 -6.467536932842141
H -6.798004683838069 -0.9312243176379493 -6.467536932842141
O -0.4568134876521799 6.680464673209247 -7.1420535309216495
H 0.44318651234782014 6.680464673209247 -7.1420535309216495
H -0.7498248266636209 7.531431391248632 -7.1420535309216495
O 0.44144433778254033 -1.9113862772795445 -7.8165701290011596
H 1.3414443377825402 -1.9113862772795445 -7.8165701290011596
H 0.14843299877109933 -1.0604195592401593 -7.8165701290011596
O -3.8861142049975412 2.368485531232845 -8.491086727080669
H -2.9861142049975413 2.368485531232845 -8.491086727080669
H -4.179125544008982 3.21945224927223 -8.491086727080669
