109
Molecule with added oxygen and hydrogen atoms
  Fe         -0.78349324440288      0.71383020667124      0.03191933914518
  O          -1.30954597385995      2.65211058444225     -0.29657714997230
  H          -1.42054946409547      3.08048978040837     -1.16356244408180
  O           1.17968367712210      1.24993769293636      0.04387610444811
  H           1.94032194621778      0.65675260342632      0.17427955482061
  O          -0.88482356381583      1.02324101208926      2.04097172812707
  H          -1.67152184061782      0.90967598644129      2.60274243131845
  O          -0.25773713964483     -1.22540017213991      0.35946840630611
  H          -0.06855904840078     -1.89547614579632     -0.32070332857197
  O          -2.74745338084093      0.17576370940759      0.02185364960607
  H          -3.50826074045548      0.76798363355741     -0.11169459074056
  O          -0.68723124468976      0.40268015344699     -1.97742105292751
  H           0.09615386179930      0.51868437112106     -2.54336263660694
  H          -1.41490770013201      0.10465340566456     -2.55105860453383
  H           1.53369362770807      2.14859519346539     -0.07672395962083
  H          -1.50154730020505      3.32271972275342      0.38228455376620
  H          -3.10083058509064     -0.72292071049875      0.14382730623556
  H          -0.15931417509256      1.31868494200758      2.61870513350693
  H          -0.14559528150324     -1.65592619940415      1.22522096977545
O 1.0136201070317448 0.7129515668421031 4.1567918636842105
H 1.9136201070317447 0.7129515668421031 4.1567918636842105
H 0.7206087680203037 1.5639182848814883 4.1567918636842105
O -2.97957322461371 -1.297625181268457 3.4067918636842105
H -2.07957322461371 -1.297625181268457 3.4067918636842105
H -3.272584563625151 -0.44665846322907177 3.4067918636842105
O -0.4652715044872349 4.354004417178514 2.65679186368421
H 0.4347284955127651 4.354004417178514 2.65679186368421
H -0.7582828434986759 5.204971135217899 2.65679186368421
O 1.7041649259551976 -2.533484231832799 1.9067918636842105
H 2.6041649259551978 -2.533484231832799 1.9067918636842105
H 1.4111535869437566 -1.6825175137934136 1.9067918636842105
O -5.075318009799605 1.471880833999745 1.1567918636842105
H -4.1753180097996045 1.471880833999745 1.1567918636842105
H -5.368329348811046 2.3228475520391303 1.1567918636842105
O 2.998875467816628 3.1198268173830614 0.4067918636842108
H 3.898875467816628 3.1198268173830614 0.4067918636842108
H 2.705864128805187 3.9707935354224464 0.4067918636842108
O -1.9489727022268868 -3.617650681756312 -0.3432081363157893
H -1.0489727022268869 -3.617650681756312 -0.3432081363157893
H -2.241984041238328 -2.766683963716927 -0.3432081363157893
O -2.7930375989335126 4.579658677312513 -1.093208136315789
H -1.8930375989335126 4.579658677312513 -1.093208136315789
H -3.0860489379449536 5.430625395351898 -1.093208136315789
O 3.0577278875693006 -0.6903395588095627 -1.8432081363157902
H 3.9577278875693005 -0.6903395588095627 -1.8432081363157902
H 2.7647165485578595 0.1606271592298225 -1.8432081363157902
O -4.163343978915512 -0.6816553747887815 -2.5932081363157886
H -3.2633439789155116 -0.6816553747887815 -2.5932081363157886
H -4.456355317926953 0.1693113432506037 -2.5932081363157886
O 0.4767482700129284 3.408842660818504 -3.3432081363157895
H 1.3767482700129285 3.408842660818504 -3.3432081363157895
H 0.1837369310014874 4.259809378857889 -3.3432081363157895
O -0.2465735923892135 -1.0030523206278656 -4.0932081363157895
H 0.6534264076107865 -1.0030523206278656 -4.0932081363157895
H -0.5395849314006544 -0.15208560258848047 -4.0932081363157895
O 1.5383527712229585 0.8586864229059015 6.1706807525731
H 2.4383527712229585 0.8586864229059015 6.1706807525731
H 1.2453414322115175 1.7096531409452866 6.1706807525731
O -3.247383265067823 -1.5683570873190158 5.448458530350878
H -2.347383265067823 -1.5683570873190158 5.448458530350878
H -3.540394604079264 -0.7173903692796306 5.448458530350878
O -0.20496105503250106 5.33726927666933 4.726236308128656
H 0.695038944967499 5.33726927666933 4.726236308128656
H -0.49797239404394206 6.188235994708715 4.726236308128656
O 2.5324337333453553 -3.224422267449897 4.004014085906434
H 3.432433733345355 -3.224422267449897 4.004014085906434
H 2.239422394333914 -2.3734555494105116 4.004014085906434
O -6.1411241819339155 1.8391853833157508 3.281791863684212
H -5.241124181933915 1.8391853833157508 3.281791863684212
H -6.434135520945357 2.690152101355136 3.281791863684212
O 4.454692913574441 4.072802026413553 2.5595696414619886
H 5.354692913574441 4.072802026413553 2.5595696414619886
H 4.161681574563 4.923768744452938 2.5595696414619886
O -2.2190292324497287 -5.171426656466288 1.8373474192397665
H -1.3190292324497288 -5.171426656466288 1.8373474192397665
H -2.5120405714611698 -4.320459938426903 1.8373474192397665
O -3.5520023310357445 6.546420109607386 1.1151251970175444
H -2.6520023310357446 6.546420109607386 1.1151251970175444
H -3.8450136700471855 7.397386827646771 1.1151251970175444
O 5.498149567610771 -1.3676210446772776 0.3929029747953225
H 6.398149567610771 -1.3676210446772776 0.3929029747953225
H 5.2051382285993295 -0.5166543266378925 0.3929029747953225
O -6.596976337453515 -1.6175999339029525 -0.32931924742689966
H -5.696976337453514 -1.6175999339029525 -0.32931924742689966
H -6.889987676464956 -0.7666332158635674 -0.32931924742689966
O 2.118456243314186 6.663615659859797 -1.0515414696491219
H 3.0184562433141857 6.663615659859797 -1.0515414696491219
H 1.8254449043027448 7.514582377899182 -1.0515414696491219
O 1.2707773878520348 -5.099300248737851 -1.773763691871344
H 2.1707773878520347 -5.099300248737851 -1.773763691871344
H 0.9777660488405937 -4.248333530698466 -1.773763691871344
O -5.779197193936931 3.8612906703835517 -2.4959859140935663
H -4.879197193936931 3.8612906703835517 -2.4959859140935663
H -6.072208532948372 4.712257388422937 -2.4959859140935663
O 4.89985983027423 2.0673775444386147 -3.21820813631579
H 5.79985983027423 2.0673775444386147 -3.21820813631579
H 4.606848491262789 2.9183442624779996 -3.21820813631579
O -3.5570740741347127 -3.3502786173211994 -3.940430358538011
H -2.6570740741347127 -3.3502786173211994 -3.940430358538011
H -3.8500854131461537 -2.499311899281814 -3.940430358538011
O -1.1757673562421818 5.317204906712833 -4.662652580760233
H -0.27576735624218174 5.317204906712833 -4.662652580760233
H -1.4687786952536228 6.168171624752218 -4.662652580760233
O 2.1493822594298626 -1.45681815322156 -5.384874802982455
H 3.0493822594298625 -1.45681815322156 -5.384874802982455
H 1.8563709204184216 -0.6058514351821749 -5.384874802982455
O -2.732547178679435 0.7704165831497122 -6.107097025204677
H -1.8325471786794352 0.7704165831497122 -6.107097025204677
H -3.025558517690876 1.6213833011890975 -6.107097025204677
