109
Molecule with added oxygen and hydrogen atoms
  Fe         -0.78347729032077      0.71384176657388      0.03199319902618
  O          -1.30728302109045      2.64895292680151     -0.29682021591587
  H          -1.41790506071356      3.07896170287779     -1.16452986946839
  O           1.17669104345108      1.24841821011384      0.04335493323910
  H           1.93920726436896      0.65550430857657      0.17381945937449
  O          -0.88490472656264      1.02317841923128      2.03743451579717
  H          -1.67226867441199      0.90953824384339      2.60058800783687
  O          -0.25991138550047     -1.22220128395717      0.35946359473074
  H          -0.06911327865664     -1.89398571187819     -0.32046437316142
  O          -2.74443063692473      0.17720136530986      0.02246931808006
  H          -3.50719006262211      0.76912376230714     -0.11087007052551
  O          -0.68736502484639      0.40264750593269     -1.97374589852656
  H           0.09657601283896      0.51891946929226     -2.54115612503009
  H          -1.41508578869544      0.10472643436784     -2.54959975996152
  H           1.53223714304699      2.14802908911062     -0.07626366679788
  H          -1.50071969276325      3.32133469960534      0.38177461205550
  H          -3.09925571309735     -0.72252293647329      0.14312082659315
  H          -0.15955801239844      1.31869759918365      2.61755034859517
  H          -0.14776066510173     -1.65428580081901      1.22592657405881
O 1.0136201070317454 0.7129515668421051 4.1567918636842105
H 1.9136201070317456 0.7129515668421051 4.1567918636842105
H 0.7206087680203044 1.5639182848814903 4.1567918636842105
O -2.9795732246137097 -1.297625181268455 3.4067918636842105
H -2.0795732246137097 -1.297625181268455 3.4067918636842105
H -3.2725845636251507 -0.44665846322906977 3.4067918636842105
O -0.46527150448723426 4.3540044171785155 2.65679186368421
H 0.43472849551276577 4.3540044171785155 2.65679186368421
H -0.7582828434986753 5.2049711352179004 2.65679186368421
O 1.7041649259551983 -2.5334842318327966 1.9067918636842105
H 2.604164925955198 -2.5334842318327966 1.9067918636842105
H 1.4111535869437573 -1.6825175137934114 1.9067918636842105
O -5.075318009799604 1.471880833999747 1.1567918636842105
H -4.175318009799604 1.471880833999747 1.1567918636842105
H -5.368329348811045 2.322847552039132 1.1567918636842105
O 2.998875467816629 3.1198268173830632 0.40679186368421083
H 3.898875467816629 3.1198268173830632 0.40679186368421083
H 2.705864128805188 3.970793535422448 0.40679186368421083
O -1.9489727022268861 -3.6176506817563103 -0.3432081363157892
H -1.048972702226886 -3.6176506817563103 -0.3432081363157892
H -2.241984041238327 -2.7666839637169254 -0.3432081363157892
O -2.793037598933512 4.579658677312516 -1.093208136315789
H -1.8930375989335122 4.579658677312516 -1.093208136315789
H -3.086048937944953 5.430625395351901 -1.093208136315789
O 3.057727887569301 -0.6903395588095607 -1.8432081363157902
H 3.957727887569301 -0.6903395588095607 -1.8432081363157902
H 2.76471654855786 0.1606271592298245 -1.8432081363157902
O -4.163343978915511 -0.6816553747887795 -2.5932081363157886
H -3.2633439789155108 -0.6816553747887795 -2.5932081363157886
H -4.456355317926952 0.1693113432506057 -2.5932081363157886
O 0.4767482700129291 3.408842660818506 -3.3432081363157895
H 1.376748270012929 3.408842660818506 -3.3432081363157895
H 0.18373693100148808 4.2598093788578915 -3.3432081363157895
O -0.24657359238921284 -1.0030523206278636 -4.0932081363157895
H 0.6534264076107872 -1.0030523206278636 -4.0932081363157895
H -0.5395849314006538 -0.15208560258847847 -4.0932081363157895
O 1.5383527712229594 0.8586864229059031 6.1706807525731
H 2.4383527712229593 0.8586864229059031 6.1706807525731
H 1.2453414322115184 1.7096531409452882 6.1706807525731
O -3.247383265067822 -1.568357087319014 5.448458530350878
H -2.347383265067822 -1.568357087319014 5.448458530350878
H -3.540394604079263 -0.7173903692796288 5.448458530350878
O -0.2049610550325004 5.337269276669331 4.726236308128656
H 0.6950389449674996 5.337269276669331 4.726236308128656
H -0.4979723940439414 6.188235994708716 4.726236308128656
O 2.532433733345356 -3.2244222674498952 4.004014085906434
H 3.432433733345356 -3.2244222674498952 4.004014085906434
H 2.239422394333915 -2.37345554941051 4.004014085906434
O -6.141124181933915 1.8391853833157525 3.281791863684212
H -5.241124181933914 1.8391853833157525 3.281791863684212
H -6.434135520945356 2.690152101355138 3.281791863684212
O 4.4546929135744415 4.072802026413555 2.5595696414619886
H 5.354692913574442 4.072802026413555 2.5595696414619886
H 4.1616815745630005 4.92376874445294 2.5595696414619886
O -2.219029232449728 -5.171426656466287 1.8373474192397665
H -1.319029232449728 -5.171426656466287 1.8373474192397665
H -2.512040571461169 -4.320459938426902 1.8373474192397665
O -3.5520023310357436 6.5464201096073875 1.1151251970175444
H -2.6520023310357437 6.5464201096073875 1.1151251970175444
H -3.8450136700471846 7.3973868276467725 1.1151251970175444
O 5.4981495676107714 -1.3676210446772759 0.3929029747953225
H 6.398149567610772 -1.3676210446772759 0.3929029747953225
H 5.20513822859933 -0.5166543266378907 0.3929029747953225
O -6.596976337453514 -1.6175999339029508 -0.32931924742689966
H -5.696976337453513 -1.6175999339029508 -0.32931924742689966
H -6.889987676464955 -0.7666332158635656 -0.32931924742689966
O 2.1184562433141867 6.663615659859798 -1.0515414696491219
H 3.0184562433141866 6.663615659859798 -1.0515414696491219
H 1.8254449043027456 7.514582377899183 -1.0515414696491219
O 1.2707773878520356 -5.09930024873785 -1.773763691871344
H 2.1707773878520356 -5.09930024873785 -1.773763691871344
H 0.9777660488405946 -4.248333530698465 -1.773763691871344
O -5.77919719393693 3.8612906703835534 -2.4959859140935663
H -4.87919719393693 3.8612906703835534 -2.4959859140935663
H -6.0722085329483715 4.712257388422938 -2.4959859140935663
O 4.899859830274231 2.0673775444386164 -3.21820813631579
H 5.799859830274231 2.0673775444386164 -3.21820813631579
H 4.60684849126279 2.9183442624780014 -3.21820813631579
O -3.5570740741347118 -3.3502786173211976 -3.940430358538011
H -2.657074074134712 -3.3502786173211976 -3.940430358538011
H -3.850085413146153 -2.499311899281812 -3.940430358538011
O -1.175767356242181 5.317204906712835 -4.662652580760233
H -0.27576735624218107 5.317204906712835 -4.662652580760233
H -1.4687786952536221 6.16817162475222 -4.662652580760233
O 2.1493822594298635 -1.4568181532215583 -5.384874802982455
H 3.0493822594298634 -1.4568181532215583 -5.384874802982455
H 1.8563709204184224 -0.6058514351821731 -5.384874802982455
O -2.732547178679434 0.7704165831497138 -6.107097025204677
H -1.8325471786794343 0.7704165831497138 -6.107097025204677
H -3.0255585176908752 1.621383301189099 -6.107097025204677
