112
Molecule with added oxygen and hydrogen atoms
Fe         0.00004        0.00002       -0.00002
O         -1.43046        0.13437       -1.45413
H         -2.35414       -0.17422       -1.38745
O          0.56021       -1.82939       -0.71982
H          1.26899       -2.39887       -0.36459
O          1.34912        0.90203       -1.24303
H          1.51554        1.86092       -1.31850
O          1.43017       -0.13445        1.45442
H          1.31648       -0.51931        2.34427
O         -0.56004        1.82952        0.71963
H         -1.26844        2.39921        0.36402
O         -1.34907       -0.90212        1.24296
H         -1.51548       -1.86101        1.31834
H         -1.94645       -0.45423        1.87175
H          0.16887       -2.29597       -1.48272
H         -1.31701        0.51864       -2.34430
H         -0.16909        2.29590        1.48288
H          1.94653        0.45407       -1.87174
H          2.35374        0.17463        1.38847
O 1.693895877101424 -1.3684210526326554e-05 3.885301079304151
H 2.593895877101424 -1.3684210526326554e-05 3.885301079304151
H 1.400884538089983 0.8509530338288589 3.885301079304151
O -2.067235247107397 -1.893746883903398 3.178886911775167
H -1.167235247107397 -1.893746883903398 3.178886911775167
H -2.360246586118838 -1.0427801658640128 3.178886911775167
O 0.3009492282790531 3.4294414067220487 2.4724727442461822
H 1.200949228279053 3.4294414067220487 2.4724727442461822
H 0.00793788926761213 4.280408124761434 2.4724727442461822
O 2.3443100683031095 -3.057784673753492 1.766058576717198
H 3.2443100683031094 -3.057784673753492 1.766058576717198
H 2.0512987292916685 -2.206817955714107 1.766058576717198
O -4.041186990814468 0.714810831086204 1.0596444091882133
H -3.1411869908144685 0.714810831086204 1.0596444091882133
H -4.3341983298259095 1.5657775491255892 1.0596444091882133
O 3.5637792277964997 2.2669873510654823 0.35323024165922934
H 4.4637792277965 2.2669873510654823 0.35323024165922934
H 3.2707678887850586 3.1179540691048677 0.35323024165922934
O -1.0965275003382977 -4.078945394000923 -0.35318392586975517
H -0.1965275003382977 -4.078945394000923 -0.35318392586975517
H -1.3895388393497388 -3.2279786759615376 -0.35318392586975517
O -1.8915400354682304 3.641981895151286 -1.0595980933987394
H -0.9915400354682303 3.641981895151286 -1.0595980933987394
H -2.184551374479671 4.492948613190671 -1.0595980933987394
O 3.6192114719387005 -1.32175332731457 -1.766012260927725
H 4.519211471938701 -1.32175332731457 -1.766012260927725
H 3.3262001329272595 -0.4707866092751849 -1.766012260927725
O -3.182211823034417 -1.3135738198136253 -2.472426428456708
H -2.2822118230344173 -1.3135738198136253 -2.472426428456708
H -3.4752231620458582 -0.46260710177424014 -2.472426428456708
O 1.1882240480115525 2.5392071996563303 -3.178840595985693
H 2.0882240480115524 2.5392071996563303 -3.178840595985693
H 0.8952127090001114 3.3901739176957157 -3.178840595985693
O 0.5069376329657875 -1.6162929610686585 -3.8852547635146775
H 1.4069376329657874 -1.6162929610686585 -3.8852547635146775
H 0.21392629395434654 -0.7653262430292733 -3.8852547635146775
O 2.283954408402563 0.14804171700583815 6.215289513886705
H 3.183954408402563 0.14804171700583815 6.215289513886705
H 1.9909430693911219 0.9990084350452233 6.215289513886705
O -2.4253339599856925 -2.2419753532176183 5.5247043632209305
H -1.5253339599856925 -2.2419753532176183 5.5247043632209305
H -2.7183452989971335 -1.3910086351782331 5.5247043632209305
O 0.5713865321135334 4.566422329489906 4.834119212555157
H 1.4713865321135335 4.566422329489906 4.834119212555157
H 0.2783751931020924 5.417389047529291 4.834119212555157
O 3.278432097455765 -3.888590455100498 4.143534061889382
H 4.178432097455765 -3.888590455100498 4.143534061889382
H 2.9854207584443238 -3.0376237370611125 4.143534061889382
O -5.309476735674203 1.1196934797275497 3.452948911223608
H -4.409476735674203 1.1196934797275497 3.452948911223608
H -5.6024880746856445 1.970660197766935 3.452948911223608
O 5.204526341239703 3.341930281174785 2.7623637605578337
H 6.104526341239703 3.341930281174785 2.7623637605578337
H 4.911515002228262 4.19289699921417 2.7623637605578337
O -1.4323762990392424 -5.863390176081286 2.0717786098920596
H -0.5323762990392423 -5.863390176081286 2.0717786098920596
H -1.7253876380506834 -5.012423458041901 2.0717786098920596
O -2.7724170264750656 5.8397143463750565 1.3811934592262851
H -1.8724170264750657 5.8397143463750565 1.3811934592262851
H -3.0654283654865067 6.690681064414441 1.3811934592262851
O 6.31185816469856 -2.0899804223015552 0.690608308560512
H 7.21185816469856 -2.0899804223015552 0.690608308560512
H 6.018846825687119 -1.23901370426217 0.690608308560512
O -5.880601824772841 -2.3551815864185697 2.31578947371873e-05
H -4.98060182477284 -2.3551815864185697 2.31578947371873e-05
H -6.173613163784282 -1.5042148683791845 2.31578947371873e-05
O 2.948840030027761 6.0571527379533086 -0.6905619927710376
H 3.8488400300277608 6.0571527379533086 -0.6905619927710376
H 2.65582869101632 6.9081194559926935 -0.6905619927710376
O 2.1030861963966756 -5.971513660540256 -1.3811471434368108
H 3.0030861963966755 -5.971513660540256 -1.3811471434368108
H 1.8100748573852345 -5.120546942500871 -1.3811471434368108
O -5.202188699298919 3.2692289131409167 -2.071732294102586
H -4.3021886992989185 3.2692289131409167 -2.071732294102586
H -5.49520003831036 4.120195631180302 -2.071732294102586
O 5.995491514675774 1.4257649989621057 -2.7623174447683603
H 6.895491514675775 1.4257649989621057 -2.7623174447683603
H 5.702480175664333 2.276731717001491 -2.7623174447683603
O -3.0246643926091115 -4.4154150625780675 -3.4529025954341352
H -2.1246643926091116 -4.4154150625780675 -3.4529025954341352
H -3.3176757316205525 -3.5644483445386825 -3.4529025954341352
O -0.47004503168907247 5.192342533178681 -4.143487746099908
H 0.42995496831092755 5.192342533178681 -4.143487746099908
H -0.7630563707005135 6.043309251218066 -4.143487746099908
O 3.5751178664021253 -2.7103148685016123 -4.834072896765683
H 4.475117866402125 -2.7103148685016123 -4.834072896765683
H 3.282106527390684 -1.8593481504622271 -4.834072896765683
O -3.3515529217978686 0.001851148828676652 -5.524658047431456
H -2.4515529217978687 0.001851148828676652 -5.524658047431456
H -3.6445642608093096 0.8528178668680618 -5.524658047431456
O 1.6723992945647235 1.6295743010575796 -6.215243198097231
H 2.5723992945647236 1.6295743010575796 -6.215243198097231
H 1.3793879555532824 2.4805410190969646 -6.215243198097231
