112
Molecule with added oxygen and hydrogen atoms
Fe         0.00016        0.00004       -0.00001
O          0.25926       -0.38143       -1.97803
H         -0.26420       -0.99121       -2.51488
O          1.28540       -1.50463        0.45825
H          1.54714       -1.78150        1.34644
O          1.55194        1.30983       -0.04803
H          1.49515        2.25580       -0.23766
O         -0.26073        0.37867        1.97837
H         -0.92975       -0.01801        2.55203
O         -1.28349        1.50640       -0.45767
H         -1.54404        1.78494       -1.34569
O         -1.55267       -1.30892        0.04711
H         -1.49711       -2.25495        0.23680
H         -2.48173       -1.09842       -0.11592
H          1.74615       -2.07406       -0.17223
H          0.92798        0.01318       -2.55346
H         -1.74395        2.07561        0.17322
H          2.48138        1.10035        0.11413
H          0.26128        0.98787        2.51730
O 1.6852188460649833 -2.3157894736841893e-05 3.865541222441974
H 2.585218846064983 -2.3157894736841893e-05 3.865541222441974
H 1.3922075070535422 0.8509435601446483 3.865541222441974
O -2.056802662029806 -1.88413464718363 3.162716215490802
H -1.156802662029806 -1.88413464718363 3.162716215490802
H -2.349814001041247 -1.0331679291442448 3.162716215490802
O 0.2993495032038402 3.412007501901628 2.4598912085396294
H 1.1993495032038402 3.412007501901628 2.4598912085396294
H 0.006338164192399187 4.262974219941013 2.4598912085396294
O 2.332328402278279 -3.0422581749217 1.7570662015884573
H 3.232328402278279 -3.0422581749217 1.7570662015884573
H 2.039317063266838 -2.1912914568823147 1.7570662015884573
O -4.020725119651352 0.71116946539262 1.054241194637285
H -3.1207251196513517 0.71116946539262 1.054241194637285
H -4.313736458662793 1.5621361834320053 1.054241194637285
O 3.5456016630563 2.2554596616946676 0.35141618768611277
H 4.4456016630563004 2.2554596616946676 0.35141618768611277
H 3.252590324044859 3.106426379734053 0.35141618768611277
O -1.0910269029492712 -4.058230565193329 -0.3514088192650596
H -0.19102690294927116 -4.058230565193329 -0.3514088192650596
H -1.3840382419607122 -3.2072638471539436 -0.3514088192650596
O -1.8820001254760375 3.623468111164614 -1.0542338262162316
H -0.9820001254760374 3.623468111164614 -1.0542338262162316
H -2.1750114644874783 4.474434829203999 -1.0542338262162316
O 3.600752266151987 -1.3150472847489376 -1.7570588331674049
H 4.500752266151987 -1.3150472847489376 -1.7570588331674049
H 3.307740927140546 -0.46408056670955244 -1.7570588331674049
O -3.1661142468574837 -1.3069093358225765 -2.459883840118576
H -2.2661142468574837 -1.3069093358225765 -2.459883840118576
H -3.4591255858689247 -0.45594261778319134 -2.459883840118576
O 1.182116242618799 2.526296411256687 -3.1627088470697493
H 2.082116242618799 2.526296411256687 -3.1627088470697493
H 0.8891049036073579 3.3772631292960718 -3.1627088470697493
O 0.5042913186578386 -1.6080904167471632 -3.8655338540209216
H 1.4042913186578385 -1.6080904167471632 -3.8655338540209216
H 0.2112799796463976 -0.7571236987077781 -3.8655338540209216
O 2.276645181797588 0.14822333314849187 6.194619409279187
H 3.176645181797588 0.14822333314849187 6.194619409279187
H 1.9836338427861469 0.9991900511878771 6.194619409279187
O -2.4169962665011924 -2.233852748291756 5.506328773160447
H -1.5169962665011925 -2.233852748291756 5.506328773160447
H -2.7100076055126334 -1.3828860302523707 5.506328773160447
O 0.5697674248242437 4.551923585679982 4.818038137041707
H 1.4697674248242438 4.551923585679982 4.818038137041707
H 0.2767560858128027 5.402890303719367 4.818038137041707
O 3.2678186533737223 -3.8749968632862064 4.129747500922966
H 4.167818653373723 -3.8749968632862064 4.129747500922966
H 2.9748073143622813 -3.0240301452468215 4.129747500922966
O -5.291556288277081 1.1166467190334486 3.441456864804227
H -4.391556288277081 1.1166467190334486 3.441456864804227
H -5.584567627288522 1.9676134370728338 3.441456864804227
O 5.187513322453426 3.3314999926666853 2.7531662286854868
H 6.087513322453426 3.3314999926666853 2.7531662286854868
H 4.894501983441985 4.182466710706071 2.7531662286854868
O -1.427337772638532 -5.843235182413942 2.0648755925667466
H -0.5273377726385319 -5.843235182413942 2.0648755925667466
H -1.720349111649973 -4.992268464374557 2.0648755925667466
O -2.7629261266925136 5.8209850061606945 1.3765849564480066
H -1.8629261266925137 5.8209850061606945 1.3765849564480066
H -3.0559374657039546 6.671951724200079 1.3765849564480066
O 6.291165963157092 -2.082362830522481 0.6882943203292674
H 7.1911659631570926 -2.082362830522481 0.6882943203292674
H 5.998154624145651 -1.2313961124830957 0.6882943203292674
O -5.860783776733931 -2.3466828463431986 3.684210526728835e-06
H -4.960783776733931 -2.3466828463431986 3.684210526728835e-06
H -6.153795115745372 -1.4957161283038134 3.684210526728835e-06
O 2.939321677249914 6.03770094439329 -0.688286951908214
H 3.839321677249914 6.03770094439329 -0.688286951908214
H 2.646310338238473 6.888667662432675 -0.688286951908214
O 2.0963779163124068 -5.950999419490127 -1.376577588026953
H 2.9963779163124067 -5.950999419490127 -1.376577588026953
H 1.8033665773009657 -5.100032701450742 -1.376577588026953
O -5.18462472345342 3.259040179705905 -2.0648682241456946
H -4.28462472345342 3.259040179705905 -2.0648682241456946
H -5.477636062464861 4.11000689774529 -2.0648682241456946
O 5.975850462120024 1.4217012955309078 -2.7531588602644343
H 6.875850462120025 1.4217012955309078 -2.7531588602644343
H 5.682839123108583 2.272668013570293 -2.7531588602644343
O -3.0143353843753595 -4.400071061383517 -3.4414494963831754
H -2.1143353843753596 -4.400071061383517 -3.4414494963831754
H -3.3073467233868006 -3.5491043433441316 -3.4414494963831754
O -0.4682039141667198 5.175764128357713 -4.129740132501914
H 0.4317960858332802 5.175764128357713 -4.129740132501914
H -0.7612152531781609 6.026730846397098 -4.129740132501914
O 3.5635186643551324 -2.700636174757834 -4.818030768620655
H 4.463518664355132 -2.700636174757834 -4.818030768620655
H 3.2705073253436914 -1.8496694567184486 -4.818030768620655
O -3.3401378049433927 0.0025184927414660385 -5.506321404739394
H -2.440137804943393 0.0025184927414660385 -5.506321404739394
H -3.633149143954834 0.8534852107808513 -5.506321404739394
O 1.667122000015718 1.6248334278262084 -6.194612040858135
H 2.567122000015718 1.6248334278262084 -6.194612040858135
H 1.374110661004277 2.475800145865594 -6.194612040858135
