112
Molecule with added oxygen and hydrogen atoms
Fe         0.00005       -0.00003        0.00001
O         -0.29045        1.85715       -0.86395
H          0.21181        2.67084       -0.65326
O         -1.37577        0.47002        1.47155
H         -1.64380       -0.11256        2.21150
O         -1.51779       -0.78129       -1.16861
H         -1.40933       -1.17706       -2.05763
O          0.29018       -1.85749        0.86332
H          0.95399       -2.07161        1.55053
O          1.37614       -0.46916       -1.47149
H          1.64609        0.11509       -2.20942
O          1.51758        0.78084        1.16915
H          1.40859        1.17743        2.05774
H          2.46575        0.81555        0.92723
H         -1.86791        1.31326        1.54563
H         -0.95334        2.07032       -1.55234
H          1.86671       -1.31314       -1.54756
H         -2.46566       -0.81719       -0.92571
H         -0.21331       -2.67057        0.65318
O 1.7016526638677945 2.1052631578921677e-05 3.9030600852498343
H 2.6016526638677946 2.1052631578921677e-05 3.9030600852498343
H 1.4086413248563534 0.8509877706709641 3.9030600852498343
O -2.076699051836519 -1.9023827317222364 3.193411553003453
H -1.1766990518365192 -1.9023827317222364 3.193411553003453
H -2.36971039084796 -1.0514160136828512 3.193411553003453
O 0.302328315246555 3.445178134061895 2.4837630207570713
H 1.2023283152465551 3.445178134061895 2.4837630207570713
H 0.009316976235114016 4.29614485210128 2.4837630207570713
O 2.355044820133623 -3.0717501467840918 1.7741144885106903
H 3.255044820133623 -3.0717501467840918 1.7741144885106903
H 2.062033481122182 -2.2207834287447064 1.7741144885106903
O -4.059688666196756 0.718118439987902 1.0644659562643088
H -3.159688666196756 0.718118439987902 1.0644659562643088
H -4.352700005208197 1.569085158027287 1.0644659562643088
O 3.5800974010881315 2.2774017044269557 0.35481742401792776
H 4.480097401088131 2.2774017044269557 0.35481742401792776
H 3.2870860620766904 3.128368422466341 0.35481742401792776
O -1.101546854444301 -4.097586319982748 -0.3548311082284537
H -0.20154685444430098 -4.097586319982748 -0.3548311082284537
H -1.394558193455742 -3.2466196019433626 -0.3548311082284537
O -1.900199407869035 3.6586917533942094 -1.064479640474835
H -1.0001994078690348 3.6586917533942094 -1.064479640474835
H -2.193210746880476 4.509658471433594 -1.064479640474835
O 3.6357834454836406 -1.3277702642125238 -1.7741281727212173
H 4.5357834454836405 -1.3277702642125238 -1.7741281727212173
H 3.3427721064721996 -0.4768035461731386 -1.7741281727212173
O -3.1967806229118056 -1.3195533062870506 -2.4837767049675974
H -2.2967806229118057 -1.3195533062870506 -2.4837767049675974
H -3.4897919619232467 -0.4685865882476654 -2.4837767049675974
O 1.193665582341366 2.5508679298801717 -3.1934252372139795
H 2.093665582341366 2.5508679298801717 -3.1934252372139795
H 0.9006542433299249 3.401834647919557 -3.1934252372139795
O 0.5092598516808338 -1.6236584674646184 -3.903073769460361
H 1.409259851680834 -1.6236584674646184 -3.903073769460361
H 0.21624851266939277 -0.7726917494252332 -3.903073769460361
O 2.2904786433405873 0.14790425364110824 6.233868913015718
H 3.190478643340587 0.14790425364110824 6.233868913015718
H 1.9974673043291462 0.9988709716804934 6.233868913015718
O -2.432910010030059 -2.249268870569007 5.541216051335608
H -1.5329100100300592 -2.249268870569007 5.541216051335608
H -2.7259213490415 -1.3983021525296218 5.541216051335608
O 0.57278309314026 4.579514131551965 4.848563189655501
H 1.4727830931402601 4.579514131551965 4.848563189655501
H 0.279771754128819 5.43048084959135 4.848563189655501
O 3.2879339412653135 -3.900814174294846 4.15591032797539
H 4.187933941265314 -3.900814174294846 4.15591032797539
H 2.9949226022538724 -3.0498474562554607 4.15591032797539
O -5.325688322956021 1.1224652811362377 3.463257466295281
H -4.42568832295602 1.1224652811362377 3.463257466295281
H -5.618699661967462 1.9734319991756228 3.463257466295281
O 5.219795187537907 3.3513557783751975 2.770604604615172
H 6.119795187537908 3.3513557783751975 2.770604604615172
H 4.926783848526466 4.202322496414583 2.770604604615172
O -1.4369792913943034 -5.88152672895044 2.0779517429350634
H -0.5369792913943033 -5.88152672895044 2.0779517429350634
H -1.7299906304057444 -5.030560010911055 2.0779517429350634
O -2.781032293013991 5.856618567405638 1.3852988812549545
H -1.881032293013991 5.856618567405638 1.3852988812549545
H -3.074043632025432 6.707585285445023 1.3852988812549545
O 6.330442521337064 -2.096818845024172 0.6926460195748467
H 7.230442521337064 -2.096818845024172 0.6926460195748467
H 6.037431182325623 -1.2458521269847866 0.6926460195748467
O -5.898523442506593 -2.362814059473039 -6.842105262790023e-06
H -4.998523442506593 -2.362814059473039 -6.842105262790023e-06
H -6.191534781518034 -1.511847341433654 -6.842105262790023e-06
O 2.957355027903248 6.074708000722584 -0.6926597037853723
H 3.857355027903248 6.074708000722584 -0.6926597037853723
H 2.664343688891807 6.925674718761969 -0.6926597037853723
O 2.1090688859601046 -5.989973950633572 -1.3853125654654803
H 3.0090688859601045 -5.989973950633572 -1.3853125654654803
H 1.8160575469486635 -5.139007232594187 -1.3853125654654803
O -5.218079050807993 3.278436732015498 -2.0779654271455907
H -4.3180790508079925 3.278436732015498 -2.0779654271455907
H -5.511090389819434 4.129403450054883 -2.0779654271455907
O 6.013128624177282 1.4294532224092422 -2.7706182888256996
H 6.913128624177283 1.4294532224092422 -2.7706182888256996
H 5.720117285165841 2.2804199404486276 -2.7706182888256996
O -3.034034923950341 -4.4292161702269075 -3.4632711505058094
H -2.134034923950341 -4.4292161702269075 -3.4632711505058094
H -3.327046262961782 -3.5782494521875226 -3.4632711505058094
O -0.47176666617100177 5.207308430126814 -4.155924012185916
H 0.42823333382899825 5.207308430126814 -4.155924012185916
H -0.7647780051824428 6.058275148166199 -4.155924012185916
O 3.585508029967255 -2.7190106615510343 -4.848576873866026
H 4.485508029967255 -2.7190106615510343 -4.848576873866026
H 3.2924966909558138 -1.8680439435116492 -4.848576873866026
O -3.3619022042918156 0.0012759699299240979 -5.541229735546133
H -2.4619022042918157 0.0012759699299240979 -5.541229735546133
H -3.6549135433032567 0.8522426879693092 -5.541229735546133
O 1.6770924457565421 1.6338727587942319 -6.233882597226244
H 2.5770924457565423 1.6338727587942319 -6.233882597226244
H 1.384081106745101 2.484839476833617 -6.233882597226244
