 xtb: 6.6.0 (conda-forge)
          10092415563D

199150  0     0  0            999 V2000
    4.7569   -1.2881    0.2595 C   0  0  0  0  0  0  0  0  0  0  0  0
    4.8286   -0.8345    1.5637 C   0  0  0  0  0  0  0  0  0  0  0  0
    3.7188   -0.2566    2.1711 C   0  0  0  0  0  0  0  0  0  0  0  0
    2.5209   -0.1403    1.4763 C   0  0  0  0  0  0  0  0  0  0  0  0
    2.4561   -0.5700    0.1274 C   0  0  0  0  0  0  0  0  0  0  0  0
    3.5751   -1.1456   -0.4663 C   0  0  0  0  0  0  0  0  0  0  0  0
    1.3033   -0.3872   -0.5167 O   0  0  0  0  0  0  0  0  0  0  0  0
    1.4110    0.3652    2.0063 O   0  0  0  0  0  0  0  0  0  0  0  0
    5.6141   -1.7483   -0.2093 H   0  0  0  0  0  0  0  0  0  0  0  0
    5.7527   -0.9156    2.1179 H   0  0  0  0  0  0  0  0  0  0  0  0
    3.7771    0.0963    3.1864 H   0  0  0  0  0  0  0  0  0  0  0  0
    3.5140   -1.4630   -1.4952 H   0  0  0  0  0  0  0  0  0  0  0  0
   -0.1046    0.0208    0.8277 Fe  0  0  0  0  0  0  0  0  0  0  0  0
   -2.5352    4.4744    1.1125 C   0  0  0  0  0  0  0  0  0  0  0  0
   -3.2157    3.8289    2.1290 C   0  0  0  0  0  0  0  0  0  0  0  0
   -2.8530    2.5432    2.5139 C   0  0  0  0  0  0  0  0  0  0  0  0
   -1.8142    1.8914    1.8624 C   0  0  0  0  0  0  0  0  0  0  0  0
   -1.1161    2.5520    0.8280 C   0  0  0  0  0  0  0  0  0  0  0  0
   -1.4815    3.8433    0.4681 C   0  0  0  0  0  0  0  0  0  0  0  0
   -0.1286    1.8886    0.2328 O   0  0  0  0  0  0  0  0  0  0  0  0
   -1.4413    0.6397    2.1544 O   0  0  0  0  0  0  0  0  0  0  0  0
   -2.8249    5.4720    0.8130 H   0  0  0  0  0  0  0  0  0  0  0  0
   -4.0495    4.3114    2.6179 H   0  0  0  0  0  0  0  0  0  0  0  0
   -3.3915    2.0401    3.3022 H   0  0  0  0  0  0  0  0  0  0  0  0
   -0.9446    4.3386   -0.3260 H   0  0  0  0  0  0  0  0  0  0  0  0
   -3.0686   -3.8265   -0.7293 C   0  0  0  0  0  0  0  0  0  0  0  0
   -2.2056   -4.5779    0.0504 C   0  0  0  0  0  0  0  0  0  0  0  0
   -1.1819   -3.9568    0.7578 C   0  0  0  0  0  0  0  0  0  0  0  0
   -1.0221   -2.5767    0.6798 C   0  0  0  0  0  0  0  0  0  0  0  0
   -1.8517   -1.8118   -0.1891 C   0  0  0  0  0  0  0  0  0  0  0  0
   -2.8916   -2.4543   -0.8613 C   0  0  0  0  0  0  0  0  0  0  0  0
   -1.5774   -0.5280   -0.3171 O   0  0  0  0  0  0  0  0  0  0  0  0
   -0.1219   -1.9084    1.3962 O   0  0  0  0  0  0  0  0  0  0  0  0
   -3.8963   -4.3144   -1.2267 H   0  0  0  0  0  0  0  0  0  0  0  0
   -2.3348   -5.6462    0.1364 H   0  0  0  0  0  0  0  0  0  0  0  0
   -0.5315   -4.5341    1.3963 H   0  0  0  0  0  0  0  0  0  0  0  0
   -3.5524   -1.8693   -1.4782 H   0  0  0  0  0  0  0  0  0  0  0  0
    1.7880    2.7056    5.2860 O   0  0  0  0  0  0  0  0  0  0  0  0
    1.4590    1.7754    5.2031 H   0  0  0  0  0  0  0  0  0  0  0  0
    1.1266    3.2152    5.7936 H   0  0  0  0  0  0  0  0  0  0  0  0
   -1.5533   -0.1275    4.6401 O   0  0  0  0  0  0  0  0  0  0  0  0
   -1.4892   -1.0889    4.4615 H   0  0  0  0  0  0  0  0  0  0  0  0
   -1.5629    0.2682    3.7322 H   0  0  0  0  0  0  0  0  0  0  0  0
    2.3706    5.4917    4.5347 O   0  0  0  0  0  0  0  0  0  0  0  0
    2.4970    4.5571    4.7412 H   0  0  0  0  0  0  0  0  0  0  0  0
    1.7024    5.5091    3.8145 H   0  0  0  0  0  0  0  0  0  0  0  0
    1.0815    0.2553    4.6530 O   0  0  0  0  0  0  0  0  0  0  0  0
    1.2091    0.2257    3.6758 H   0  0  0  0  0  0  0  0  0  0  0  0
    0.1198    0.1078    4.7852 H   0  0  0  0  0  0  0  0  0  0  0  0
   -3.7751   -0.5323    1.6885 O   0  0  0  0  0  0  0  0  0  0  0  0
   -2.8873   -0.1959    1.9537 H   0  0  0  0  0  0  0  0  0  0  0  0
   -3.9518   -0.0279    0.8698 H   0  0  0  0  0  0  0  0  0  0  0  0
    1.7037    2.8882    2.6041 O   0  0  0  0  0  0  0  0  0  0  0  0
    1.5016    1.9855    2.2685 H   0  0  0  0  0  0  0  0  0  0  0  0
    1.6693    2.8136    3.5802 H   0  0  0  0  0  0  0  0  0  0  0  0
   -1.3532   -2.6570    3.7617 O   0  0  0  0  0  0  0  0  0  0  0  0
   -0.7869   -2.3845    3.0145 H   0  0  0  0  0  0  0  0  0  0  0  0
   -2.2335   -2.8275    3.3667 H   0  0  0  0  0  0  0  0  0  0  0  0
    0.6790    5.3118    2.4073 O   0  0  0  0  0  0  0  0  0  0  0  0
    0.8295    4.3436    2.3688 H   0  0  0  0  0  0  0  0  0  0  0  0
    1.3272    5.6547    1.7532 H   0  0  0  0  0  0  0  0  0  0  0  0
    2.1112   -3.2887    1.4335 O   0  0  0  0  0  0  0  0  0  0  0  0
    1.2356   -2.8213    1.4965 H   0  0  0  0  0  0  0  0  0  0  0  0
    2.7338   -2.5861    1.2184 H   0  0  0  0  0  0  0  0  0  0  0  0
   -3.7295   -3.0784    2.4604 O   0  0  0  0  0  0  0  0  0  0  0  0
   -3.4064   -3.5617    1.6935 H   0  0  0  0  0  0  0  0  0  0  0  0
   -3.8375   -2.1468    2.1765 H   0  0  0  0  0  0  0  0  0  0  0  0
    2.5855    5.8416    0.6101 O   0  0  0  0  0  0  0  0  0  0  0  0
    2.5600    4.9821    0.1644 H   0  0  0  0  0  0  0  0  0  0  0  0
    3.3469    5.8129    1.2385 H   0  0  0  0  0  0  0  0  0  0  0  0
    0.3401   -2.2006   -2.1081 O   0  0  0  0  0  0  0  0  0  0  0  0
    0.7354   -1.4209   -1.6296 H   0  0  0  0  0  0  0  0  0  0  0  0
   -0.2951   -2.5574   -1.4782 H   0  0  0  0  0  0  0  0  0  0  0  0
   -3.7494    0.9245   -0.6197 O   0  0  0  0  0  0  0  0  0  0  0  0
   -2.8582    0.4968   -0.6043 H   0  0  0  0  0  0  0  0  0  0  0  0
   -4.2014    0.5674   -1.3923 H   0  0  0  0  0  0  0  0  0  0  0  0
    4.9810    1.0365   -1.9115 O   0  0  0  0  0  0  0  0  0  0  0  0
    5.0192    1.8673   -1.3942 H   0  0  0  0  0  0  0  0  0  0  0  0
    4.8847    0.3449   -1.2438 H   0  0  0  0  0  0  0  0  0  0  0  0
   -1.7129   -1.9777   -3.9783 O   0  0  0  0  0  0  0  0  0  0  0  0
   -1.0297   -2.0164   -3.2830 H   0  0  0  0  0  0  0  0  0  0  0  0
   -2.0753   -1.0617   -3.9545 H   0  0  0  0  0  0  0  0  0  0  0  0
    0.7977    5.1402   -2.3326 O   0  0  0  0  0  0  0  0  0  0  0  0
    1.2537    4.4992   -1.7382 H   0  0  0  0  0  0  0  0  0  0  0  0
    0.5652    5.8992   -1.7694 H   0  0  0  0  0  0  0  0  0  0  0  0
    4.3608   -3.6668   -3.3160 O   0  0  0  0  0  0  0  0  0  0  0  0
    4.8262   -2.8134   -3.4264 H   0  0  0  0  0  0  0  0  0  0  0  0
    3.8615   -3.6075   -2.4876 H   0  0  0  0  0  0  0  0  0  0  0  0
   -5.0190   -0.5843   -2.8853 O   0  0  0  0  0  0  0  0  0  0  0  0
   -4.9385   -1.4693   -3.2834 H   0  0  0  0  0  0  0  0  0  0  0  0
   -4.3144   -0.0725   -3.3195 H   0  0  0  0  0  0  0  0  0  0  0  0
    2.3005    1.4003   -2.3631 O   0  0  0  0  0  0  0  0  0  0  0  0
    3.2589    1.2058   -2.3499 H   0  0  0  0  0  0  0  0  0  0  0  0
    1.8736    0.7376   -1.7851 H   0  0  0  0  0  0  0  0  0  0  0  0
    0.2486   -1.9400   -5.8158 O   0  0  0  0  0  0  0  0  0  0  0  0
    0.8915   -2.6024   -5.5078 H   0  0  0  0  0  0  0  0  0  0  0  0
   -0.5750   -2.1280   -5.3294 H   0  0  0  0  0  0  0  0  0  0  0  0
   -0.7420    1.2774   -2.2984 O   0  0  0  0  0  0  0  0  0  0  0  0
   -0.5135    1.3295   -1.3528 H   0  0  0  0  0  0  0  0  0  0  0  0
   -0.7995    2.2015   -2.6090 H   0  0  0  0  0  0  0  0  0  0  0  0
    2.6592   -1.1784   -3.5761 O   0  0  0  0  0  0  0  0  0  0  0  0
    2.2570   -2.0129   -3.8523 H   0  0  0  0  0  0  0  0  0  0  0  0
    1.9796   -0.4911   -3.6914 H   0  0  0  0  0  0  0  0  0  0  0  0
    0.6001    0.3874   -4.4311 O   0  0  0  0  0  0  0  0  0  0  0  0
    0.3549   -0.4394   -4.8883 H   0  0  0  0  0  0  0  0  0  0  0  0
    0.1430    0.4683   -3.5720 H   0  0  0  0  0  0  0  0  0  0  0  0
    4.4084    1.7155    5.1006 O   0  0  0  0  0  0  0  0  0  0  0  0
    4.2356    0.7740    5.2878 H   0  0  0  0  0  0  0  0  0  0  0  0
    3.5726    2.1545    5.3177 H   0  0  0  0  0  0  0  0  0  0  0  0
   -4.0796   -0.2605    5.7206 O   0  0  0  0  0  0  0  0  0  0  0  0
   -3.1866   -0.0565    5.3825 H   0  0  0  0  0  0  0  0  0  0  0  0
   -4.6932    0.0100    5.0225 H   0  0  0  0  0  0  0  0  0  0  0  0
    0.2574    4.6961    6.3177 O   0  0  0  0  0  0  0  0  0  0  0  0
    0.9627    5.2820    6.0099 H   0  0  0  0  0  0  0  0  0  0  0  0
   -0.4634    4.8246    5.6697 H   0  0  0  0  0  0  0  0  0  0  0  0
    3.4236   -0.8362    5.5774 O   0  0  0  0  0  0  0  0  0  0  0  0
    3.5289   -1.6628    5.0821 H   0  0  0  0  0  0  0  0  0  0  0  0
    2.5268   -0.5264    5.3548 H   0  0  0  0  0  0  0  0  0  0  0  0
   -5.5593    0.5656    3.4278 O   0  0  0  0  0  0  0  0  0  0  0  0
   -4.9202    0.0593    2.8926 H   0  0  0  0  0  0  0  0  0  0  0  0
   -5.9394    1.1814    2.7841 H   0  0  0  0  0  0  0  0  0  0  0  0
    4.3957    2.9223    2.6133 O   0  0  0  0  0  0  0  0  0  0  0  0
    4.5890    2.4527    3.4452 H   0  0  0  0  0  0  0  0  0  0  0  0
    3.4173    2.8831    2.5230 H   0  0  0  0  0  0  0  0  0  0  0  0
   -3.2700   -2.8363    6.1798 O   0  0  0  0  0  0  0  0  0  0  0  0
   -3.6731   -1.9500    6.0732 H   0  0  0  0  0  0  0  0  0  0  0  0
   -2.4435   -2.8019    5.6874 H   0  0  0  0  0  0  0  0  0  0  0  0
   -1.3977    5.1981    4.2135 O   0  0  0  0  0  0  0  0  0  0  0  0
   -0.7224    5.3667    3.5361 H   0  0  0  0  0  0  0  0  0  0  0  0
   -1.9721    4.5231    3.8335 H   0  0  0  0  0  0  0  0  0  0  0  0
    3.6873   -3.0199    3.7702 O   0  0  0  0  0  0  0  0  0  0  0  0
    4.2600   -2.4745    3.2212 H   0  0  0  0  0  0  0  0  0  0  0  0
    2.9633   -3.2967    3.1856 H   0  0  0  0  0  0  0  0  0  0  0  0
   -4.3245   -4.8077    4.6061 O   0  0  0  0  0  0  0  0  0  0  0  0
   -4.3332   -4.2599    3.8092 H   0  0  0  0  0  0  0  0  0  0  0  0
   -4.0509   -4.1866    5.3100 H   0  0  0  0  0  0  0  0  0  0  0  0
    4.3635    5.6349    2.5903 O   0  0  0  0  0  0  0  0  0  0  0  0
    4.5464    4.6730    2.5673 H   0  0  0  0  0  0  0  0  0  0  0  0
    3.7673    5.7523    3.3510 H   0  0  0  0  0  0  0  0  0  0  0  0
    2.3316   -3.8708   -1.2686 O   0  0  0  0  0  0  0  0  0  0  0  0
    2.2507   -3.8312   -0.2978 H   0  0  0  0  0  0  0  0  0  0  0  0
    1.7225   -3.1899   -1.6221 H   0  0  0  0  0  0  0  0  0  0  0  0
   -6.1075    1.7499    0.9033 O   0  0  0  0  0  0  0  0  0  0  0  0
   -5.2092    1.8934    0.5813 H   0  0  0  0  0  0  0  0  0  0  0  0
   -6.3899    0.9234    0.4758 H   0  0  0  0  0  0  0  0  0  0  0  0
    4.6298    3.0241   -0.1338 O   0  0  0  0  0  0  0  0  0  0  0  0
    3.6771    3.1599   -0.2631 H   0  0  0  0  0  0  0  0  0  0  0  0
    4.7429    2.8878    0.8191 H   0  0  0  0  0  0  0  0  0  0  0  0
   -1.6832   -5.5886    4.0329 O   0  0  0  0  0  0  0  0  0  0  0  0
   -1.3353   -4.6888    4.0026 H   0  0  0  0  0  0  0  0  0  0  0  0
   -2.6242   -5.4835    4.2584 H   0  0  0  0  0  0  0  0  0  0  0  0
    0.2496    6.9358   -0.3118 O   0  0  0  0  0  0  0  0  0  0  0  0
    1.1763    6.8149   -0.0449 H   0  0  0  0  0  0  0  0  0  0  0  0
   -0.2634    6.4714    0.3579 H   0  0  0  0  0  0  0  0  0  0  0  0
    3.9296   -6.4852   -3.7011 O   0  0  0  0  0  0  0  0  0  0  0  0
    2.9998   -6.4247   -3.4541 H   0  0  0  0  0  0  0  0  0  0  0  0
    4.2685   -5.5836   -3.6131 H   0  0  0  0  0  0  0  0  0  0  0  0
   -6.3641   -0.7511   -0.3935 O   0  0  0  0  0  0  0  0  0  0  0  0
   -5.9879   -0.6707   -1.2844 H   0  0  0  0  0  0  0  0  0  0  0  0
   -5.6903   -1.1680    0.1510 H   0  0  0  0  0  0  0  0  0  0  0  0
    1.8916    3.3461   -0.6698 O   0  0  0  0  0  0  0  0  0  0  0  0
    2.0895    2.6985   -1.3951 H   0  0  0  0  0  0  0  0  0  0  0  0
    1.1539    2.8920   -0.1922 H   0  0  0  0  0  0  0  0  0  0  0  0
    1.2024   -5.7099   -2.8005 O   0  0  0  0  0  0  0  0  0  0  0  0
    1.6905   -5.1311   -2.1648 H   0  0  0  0  0  0  0  0  0  0  0  0
    0.3006   -5.7455   -2.4754 H   0  0  0  0  0  0  0  0  0  0  0  0
   -1.2727    3.7879   -3.2026 O   0  0  0  0  0  0  0  0  0  0  0  0
   -1.9619    4.0207   -2.5782 H   0  0  0  0  0  0  0  0  0  0  0  0
   -0.4773    4.3306   -2.9649 H   0  0  0  0  0  0  0  0  0  0  0  0
    5.6784   -1.2320   -3.7168 O   0  0  0  0  0  0  0  0  0  0  0  0
    5.3208   -0.9396   -4.5674 H   0  0  0  0  0  0  0  0  0  0  0  0
    5.4807   -0.4983   -3.1205 H   0  0  0  0  0  0  0  0  0  0  0  0
   -4.2173   -3.0406   -3.9055 O   0  0  0  0  0  0  0  0  0  0  0  0
   -3.3058   -2.7101   -4.0428 H   0  0  0  0  0  0  0  0  0  0  0  0
   -4.1531   -3.6140   -3.1393 H   0  0  0  0  0  0  0  0  0  0  0  0
    2.4364    5.1698   -4.7409 O   0  0  0  0  0  0  0  0  0  0  0  0
    2.6218    4.2334   -4.8971 H   0  0  0  0  0  0  0  0  0  0  0  0
    1.8970    5.1945   -3.9400 H   0  0  0  0  0  0  0  0  0  0  0  0
    1.9829   -3.7315   -4.6403 O   0  0  0  0  0  0  0  0  0  0  0  0
    2.9288   -3.7608   -4.3916 H   0  0  0  0  0  0  0  0  0  0  0  0
    1.5730   -4.4473   -4.1308 H   0  0  0  0  0  0  0  0  0  0  0  0
   -2.7161    0.4990   -3.8481 O   0  0  0  0  0  0  0  0  0  0  0  0
   -2.1486    0.7480   -3.0836 H   0  0  0  0  0  0  0  0  0  0  0  0
   -2.3770    1.0481   -4.5835 H   0  0  0  0  0  0  0  0  0  0  0  0
    2.7285    2.3135   -5.0377 O   0  0  0  0  0  0  0  0  0  0  0  0
    3.3234    1.5806   -5.2944 H   0  0  0  0  0  0  0  0  0  0  0  0
    2.3189    2.0136   -4.2122 H   0  0  0  0  0  0  0  0  0  0  0  0
    1.9935   -0.4291   -7.5388 O   0  0  0  0  0  0  0  0  0  0  0  0
    1.3471   -0.9488   -7.0433 H   0  0  0  0  0  0  0  0  0  0  0  0
    1.6570    0.4916   -7.5225 H   0  0  0  0  0  0  0  0  0  0  0  0
   -1.1965    2.0818   -5.4617 O   0  0  0  0  0  0  0  0  0  0  0  0
   -1.2041    2.8429   -4.8657 H   0  0  0  0  0  0  0  0  0  0  0  0
   -0.4472    1.5231   -5.1462 H   0  0  0  0  0  0  0  0  0  0  0  0
    3.9547   -0.0725   -5.6731 O   0  0  0  0  0  0  0  0  0  0  0  0
    3.3713   -0.2498   -6.4386 H   0  0  0  0  0  0  0  0  0  0  0  0
    3.4989   -0.4929   -4.9122 H   0  0  0  0  0  0  0  0  0  0  0  0
    1.0949    2.1340   -7.2273 O   0  0  0  0  0  0  0  0  0  0  0  0
    1.6940    2.3030   -6.4696 H   0  0  0  0  0  0  0  0  0  0  0  0
    0.2036    2.1869   -6.8585 H   0  0  0  0  0  0  0  0  0  0  0  0
  1  2  4  0  0  0  0
  2  3  4  0  0  0  0
  3  4  4  0  0  0  0
  4  5  4  0  0  0  0
  1  6  4  0  0  0  0
  5  6  4  0  0  0  0
  5  7  1  0  0  0  0
  4  8  1  0  0  0  0
  1  9  1  0  0  0  0
  2 10  1  0  0  0  0
  3 11  1  0  0  0  0
  6 12  1  0  0  0  0
  7 13  1  0  0  0  0
  8 13  1  0  0  0  0
 14 15  4  0  0  0  0
 15 16  4  0  0  0  0
 16 17  4  0  0  0  0
 17 18  4  0  0  0  0
 14 19  4  0  0  0  0
 18 19  4  0  0  0  0
 13 20  1  0  0  0  0
 18 20  1  0  0  0  0
 13 21  1  0  0  0  0
 17 21  1  0  0  0  0
 14 22  1  0  0  0  0
 15 23  1  0  0  0  0
 16 24  1  0  0  0  0
 19 25  1  0  0  0  0
 26 27  4  0  0  0  0
 27 28  4  0  0  0  0
 28 29  4  0  0  0  0
 29 30  1  0  0  0  0
 26 31  4  0  0  0  0
 30 31  4  0  0  0  0
 13 32  1  0  0  0  0
 30 32  1  0  0  0  0
 13 33  1  0  0  0  0
 29 33  1  0  0  0  0
 26 34  1  0  0  0  0
 27 35  1  0  0  0  0
 28 36  1  0  0  0  0
 31 37  1  0  0  0  0
 38 39  1  0  0  0  0
 38 40  1  0  0  0  0
 41 42  1  0  0  0  0
 41 43  1  0  0  0  0
 44 45  1  0  0  0  0
 44 46  1  0  0  0  0
 47 48  1  0  0  0  0
 47 49  1  0  0  0  0
 50 51  1  0  0  0  0
 50 52  1  0  0  0  0
 53 54  1  0  0  0  0
 53 55  1  0  0  0  0
 56 57  1  0  0  0  0
 56 58  1  0  0  0  0
 59 60  1  0  0  0  0
 59 61  1  0  0  0  0
 62 63  1  0  0  0  0
 62 64  1  0  0  0  0
 65 66  1  0  0  0  0
 65 67  1  0  0  0  0
 68 69  1  0  0  0  0
 68 70  1  0  0  0  0
 71 72  1  0  0  0  0
 71 73  1  0  0  0  0
 74 75  1  0  0  0  0
 74 76  1  0  0  0  0
 77 78  1  0  0  0  0
 77 79  1  0  0  0  0
 80 81  1  0  0  0  0
 80 82  1  0  0  0  0
 83 84  1  0  0  0  0
 83 85  1  0  0  0  0
 86 87  1  0  0  0  0
 86 88  1  0  0  0  0
 89 90  1  0  0  0  0
 89 91  1  0  0  0  0
 92 93  1  0  0  0  0
 92 94  1  0  0  0  0
 95 96  1  0  0  0  0
 95 97  1  0  0  0  0
 98 99  1  0  0  0  0
 98100  1  0  0  0  0
101102  1  0  0  0  0
101103  1  0  0  0  0
104105  1  0  0  0  0
104106  1  0  0  0  0
107108  1  0  0  0  0
107109  1  0  0  0  0
110111  1  0  0  0  0
110112  1  0  0  0  0
113114  1  0  0  0  0
113115  1  0  0  0  0
116117  1  0  0  0  0
116118  1  0  0  0  0
119120  1  0  0  0  0
119121  1  0  0  0  0
122123  1  0  0  0  0
122124  1  0  0  0  0
125126  1  0  0  0  0
125127  1  0  0  0  0
128129  1  0  0  0  0
128130  1  0  0  0  0
131132  1  0  0  0  0
131133  1  0  0  0  0
134135  1  0  0  0  0
134136  1  0  0  0  0
137138  1  0  0  0  0
137139  1  0  0  0  0
140141  1  0  0  0  0
140142  1  0  0  0  0
143144  1  0  0  0  0
143145  1  0  0  0  0
146147  1  0  0  0  0
146148  1  0  0  0  0
149150  1  0  0  0  0
149151  1  0  0  0  0
152153  1  0  0  0  0
152154  1  0  0  0  0
155156  1  0  0  0  0
155157  1  0  0  0  0
158159  1  0  0  0  0
158160  1  0  0  0  0
161162  1  0  0  0  0
161163  1  0  0  0  0
164165  1  0  0  0  0
164166  1  0  0  0  0
167168  1  0  0  0  0
167169  1  0  0  0  0
170171  1  0  0  0  0
170172  1  0  0  0  0
173174  1  0  0  0  0
173175  1  0  0  0  0
176177  1  0  0  0  0
176178  1  0  0  0  0
179180  1  0  0  0  0
179181  1  0  0  0  0
182183  1  0  0  0  0
182184  1  0  0  0  0
185186  1  0  0  0  0
185187  1  0  0  0  0
188189  1  0  0  0  0
188190  1  0  0  0  0
191192  1  0  0  0  0
191193  1  0  0  0  0
194195  1  0  0  0  0
194196  1  0  0  0  0
197198  1  0  0  0  0
197199  1  0  0  0  0
M  CHG  1   1  -3
M  END
