118
Molecule with added oxygen and hydrogen atoms
C         -1.66463        5.17383       -0.75039
C         -0.67993        4.87518       -1.71752
C         -0.00167        3.64484       -1.70736
C         -0.29197        2.59771       -0.70920
C         -1.32493        2.93487        0.27956
C         -1.96270        4.19392        0.23284
C         -1.69107        1.94804        1.43478
O         -1.09337        0.74682        1.44528
O         -2.52034        2.32436        2.34452
O          0.37860        1.46298       -0.75352
H         -2.18805        6.13958       -0.76416
H         -0.43784        5.62056       -2.49320
H          0.76695        3.43104       -2.46035
H         -2.71887        4.39050        1.00930
Fe         0.10740       -0.14464        0.39395
C          5.46323       -1.18306       -0.89026
C          4.68465       -1.75773       -1.93548
C          3.26075       -1.65390       -1.88900
C          2.56890       -0.99364       -0.82041
C          3.39661       -0.40357        0.27090
C          4.82437       -0.52637        0.17255
C          2.75571        0.32689        1.41085
O          1.36547        0.41442        1.39851
O          3.42851        0.87710        2.36999
O          1.22910       -0.92155       -0.83384
H          6.56215       -1.25306       -0.91959
H          5.17370       -2.27760       -2.77188
H          2.65673       -2.08778       -2.69767
H          5.41995       -0.07163        0.97994
C         -4.13918       -3.61617       -0.88731
C         -4.20713       -2.56013       -1.83330
C         -3.25085       -1.50038       -1.78200
C         -2.21270       -1.44425       -0.78620
C         -2.15575       -2.55995        0.19871
C         -3.13421       -3.60757        0.09630
C         -1.06716       -2.62014        1.22136
O         -0.08656       -1.62708        1.13181
O         -0.94895       -3.56166        2.09917
O         -1.35408       -0.42017       -0.77309
H         -4.87184       -4.43783       -0.92444
H         -4.99546       -2.55326       -2.60052
H         -3.29991       -0.68514       -2.51589
H         -3.06880       -4.42727        0.82837
O 2.3327638027748785 0.0513281395348837 7.7107345331019035
H 3.2327638027748784 0.0513281395348837 7.7107345331019035
H 2.0397524637634374 0.9022948575742689 7.7107345331019035
O -2.9872434129910306 -2.6569998010535523 7.035425473172869
H -2.0872434129910307 -2.6569998010535523 7.035425473172869
H -3.2802547520024716 -1.806033083014167 7.035425473172869
O 0.41197747281495084 5.096753108047042 6.360116413243834
H 1.311977472814951 5.096753108047042 6.360116413243834
H 0.11896613380350984 5.947719826086427 6.360116413243834
O 3.533469966410196 -4.597654224262606 5.6848073533148
H 4.433469966410196 -4.597654224262606 5.6848073533148
H 3.240458627398755 -3.746687506223221 5.6848073533148
O -6.417799273367715 1.1810952119112341 5.009498293385765
H -5.517799273367714 1.1810952119112341 5.009498293385765
H -6.710810612379156 2.0320619299506193 5.009498293385765
O 5.870075067616866 3.8049932299733773 4.3341892334567325
H 6.770075067616866 3.8049932299733773 4.3341892334567325
H 5.577063728605425 4.655959948012763 4.3341892334567325
O -1.953276562701648 -7.100122235689874 3.6588801735276966
H -1.0532765627016478 -7.100122235689874 3.6588801735276966
H -2.246287901713089 -6.249155517650489 3.6588801735276966
O -3.5966883454323657 6.917194680552619 2.9835711135986616
H -2.696688345432366 6.917194680552619 2.9835711135986616
H -3.8896996844438068 7.768161398592004 2.9835711135986616
O 7.481400051362925 -2.6921218102760487 2.3082620536696266
H 8.381400051362926 -2.6921218102760487 2.3082620536696266
H 7.188388712351484 -1.8411550922366635 2.3082620536696266
O -7.605503057013313 -3.0753917781248017 1.6329529937405924
H -6.7055030570133125 -3.0753917781248017 1.6329529937405924
H -7.898514396024754 -2.2244250600854167 1.6329529937405924
O 3.50092686318179 7.598461573908715 0.9576439338115575
H 4.40092686318179 7.598461573908715 0.9576439338115575
H 3.2079155241703488 8.4494282919481 0.9576439338115575
O 2.487448566653579 -7.977302200992802 0.282334873882524
H 3.3874485666535787 -7.977302200992802 0.282334873882524
H 2.1944372276421378 -7.126335482953417 0.282334873882524
O -7.334380015708175 4.283891668576939 -0.3929741860465111
H -6.434380015708174 4.283891668576939 -0.3929741860465111
H -7.627391354719616 5.134858386616324 -0.3929741860465111
O 8.187232407553221 1.858043447740952 -1.0682832459755462
H 9.087232407553222 1.858043447740952 -1.0682832459755462
H 7.89422106854178 2.709010165780337 -1.0682832459755462
O -4.823149030216216 -6.765269736459843 -1.74359230590458
H -3.923149030216216 -6.765269736459843 -1.74359230590458
H -5.116160369227657 -5.914303018420458 -1.74359230590458
O -1.0839175915886838 8.178025723421252 -2.418901365833615
H -0.18391759158868382 8.178025723421252 -2.418901365833615
H -1.376928930600125 9.028992441460638 -2.418901365833615
O 6.08445908926539 -5.102633786978586 -3.094210425762651
H 6.98445908926539 -5.102633786978586 -3.094210425762651
H 5.7914477502539485 -4.251667068939201 -3.094210425762651
O -7.760848448168521 -0.2683328921234845 -3.7695194856916827
H -6.860848448168521 -0.2683328921234845 -3.7695194856916827
H -8.053859787179961 0.5826338259159007 -3.7695194856916827
O 5.218306307188849 5.274907825586815 -4.444828545620718
H 6.118306307188849 5.274907825586815 -4.444828545620718
H 4.925294968177408 6.1258745436262 -4.444828545620718
O -0.3538627287534989 -6.934813968374751 -5.120137605549752
H 0.5461372712465011 -6.934813968374751 -5.120137605549752
H -0.6468740677649398 -6.083847250335366 -5.120137605549752
O -4.186541811629527 5.031274267832735 -5.795446665478785
H -3.2865418116295273 5.031274267832735 -5.795446665478785
H -4.479553150640968 5.88224098587212 -5.795446665478785
O 5.774953085044494 -0.7298301360265023 -6.470755725407821
H 6.6749530850444945 -0.7298301360265023 -6.470755725407821
H 5.481941746033053 0.12113658201288291 -6.470755725407821
O -4.18831594601191 -2.841350708292775 -7.146064785336857
H -3.28831594601191 -2.841350708292775 -7.146064785336857
H -4.481327285023351 -1.9903839902533897 -7.146064785336857
O 0.8491762688366745 3.962990478863052 -7.8213738452658905
H 1.7491762688366745 3.962990478863052 -7.8213738452658905
H 0.5561649298252336 4.813957196902437 -7.8213738452658905
O 1.1443097155295128 -1.9994262508042426 -8.496682905194927
H 2.0443097155295127 -1.9994262508042426 -8.496682905194927
H 0.8512983765180717 -1.1484595327648575 -8.496682905194927
