 xtb: 6.6.0 (conda-forge)
          11042415273D

373272  0     0  0            999 V2000
    0.6832    3.9342    0.7640 C   0  0  0  0  0  0  0  0  0  0  0  0
    0.3421    2.6880    0.2220 C   0  0  0  0  0  0  0  0  0  0  0  0
   -0.5078    2.6485   -0.9836 C   0  0  0  0  0  0  0  0  0  0  0  0
   -0.8214    1.5234   -1.4634 O   0  0  0  0  0  0  0  0  0  0  0  0
   -0.9180    3.8962   -1.5314 C   0  0  0  0  0  0  0  0  0  0  0  0
   -0.5390    5.0818   -0.9473 C   0  0  0  0  0  0  0  0  0  0  0  0
    0.2370    5.1146    0.1643 N   0  0  0  0  0  0  0  0  0  0  0  0
    0.5484    6.3958    0.7769 C   0  0  0  0  0  0  0  0  0  0  0  0
    0.7261    1.5678    0.7187 O   0  0  0  0  0  0  0  0  0  0  0  0
   -1.5362    3.9075   -2.4223 H   0  0  0  0  0  0  0  0  0  0  0  0
   -0.8425    6.0448   -1.3418 H   0  0  0  0  0  0  0  0  0  0  0  0
    1.6261    6.5084    0.9316 H   0  0  0  0  0  0  0  0  0  0  0  0
    0.2089    7.2011    0.1202 H   0  0  0  0  0  0  0  0  0  0  0  0
    0.0509    6.5035    1.7492 H   0  0  0  0  0  0  0  0  0  0  0  0
   -0.0008   -0.0111   -0.3625 Fe  0  0  0  0  0  0  0  0  0  0  0  0
   -3.7678   -1.3688    0.7639 C   0  0  0  0  0  0  0  0  0  0  0  0
   -2.5095   -1.0577    0.2318 C   0  0  0  0  0  0  0  0  0  0  0  0
   -2.0468   -1.7869   -0.9641 C   0  0  0  0  0  0  0  0  0  0  0  0
   -0.9178   -1.4950   -1.4490 O   0  0  0  0  0  0  0  0  0  0  0  0
   -2.9163   -2.7775   -1.4987 C   0  0  0  0  0  0  0  0  0  0  0  0
   -4.1397   -3.0273   -0.9232 C   0  0  0  0  0  0  0  0  0  0  0  0
   -4.5670   -2.3479    0.1691 N   0  0  0  0  0  0  0  0  0  0  0  0
   -5.8492   -2.6897    0.7623 C   0  0  0  0  0  0  0  0  0  0  0  0
   -1.7309   -0.1641    0.7247 O   0  0  0  0  0  0  0  0  0  0  0  0
   -2.6095   -3.3347   -2.3763 H   0  0  0  0  0  0  0  0  0  0  0  0
   -4.8198   -3.7765   -1.3108 H   0  0  0  0  0  0  0  0  0  0  0  0
   -6.4744   -1.7994    0.8892 H   0  0  0  0  0  0  0  0  0  0  0  0
   -6.3737   -3.3907    0.1061 H   0  0  0  0  0  0  0  0  0  0  0  0
   -5.7208   -3.1605    1.7463 H   0  0  0  0  0  0  0  0  0  0  0  0
    3.0847   -2.5578    0.7627 C   0  0  0  0  0  0  0  0  0  0  0  0
    2.1716   -1.6417    0.2242 C   0  0  0  0  0  0  0  0  0  0  0  0
    2.5586   -0.8814   -0.9793 C   0  0  0  0  0  0  0  0  0  0  0  0
    1.7304   -0.0608   -1.4647 O   0  0  0  0  0  0  0  0  0  0  0  0
    3.8509   -1.1299   -1.5197 C   0  0  0  0  0  0  0  0  0  0  0  0
    4.6971   -2.0407   -0.9321 C   0  0  0  0  0  0  0  0  0  0  0  0
    4.3382   -2.7394    0.1733 N   0  0  0  0  0  0  0  0  0  0  0  0
    5.2945   -3.6509    0.7825 C   0  0  0  0  0  0  0  0  0  0  0  0
    1.0066   -1.4248    0.7186 O   0  0  0  0  0  0  0  0  0  0  0  0
    4.1687   -0.5919   -2.4060 H   0  0  0  0  0  0  0  0  0  0  0  0
    5.6894   -2.2420   -1.3183 H   0  0  0  0  0  0  0  0  0  0  0  0
    4.8849   -4.6627    0.8624 H   0  0  0  0  0  0  0  0  0  0  0  0
    6.1945   -3.6915    0.1669 H   0  0  0  0  0  0  0  0  0  0  0  0
    5.5757   -3.3169    1.7878 H   0  0  0  0  0  0  0  0  0  0  0  0
   -4.2810   -0.6398    1.9698 C   0  0  0  0  0  0  0  0  0  0  0  0
   -3.4814    0.0184    2.3112 H   0  0  0  0  0  0  0  0  0  0  0  0
   -5.1608   -0.0166    1.7542 H   0  0  0  0  0  0  0  0  0  0  0  0
   -4.5521   -1.3096    2.7953 H   0  0  0  0  0  0  0  0  0  0  0  0
    1.5354    4.0162    1.9958 C   0  0  0  0  0  0  0  0  0  0  0  0
    1.0329    4.5208    2.8330 H   0  0  0  0  0  0  0  0  0  0  0  0
    1.7565    2.9920    2.2999 H   0  0  0  0  0  0  0  0  0  0  0  0
    2.4914    4.5354    1.8296 H   0  0  0  0  0  0  0  0  0  0  0  0
    2.7232   -3.3633    1.9749 C   0  0  0  0  0  0  0  0  0  0  0  0
    3.3875   -3.1793    2.8294 H   0  0  0  0  0  0  0  0  0  0  0  0
    1.7131   -3.0712    2.2631 H   0  0  0  0  0  0  0  0  0  0  0  0
    2.7250   -4.4468    1.7896 H   0  0  0  0  0  0  0  0  0  0  0  0
    5.0773    1.1946    6.0194 O   0  0  0  0  0  0  0  0  0  0  0  0
    4.3864    0.8069    5.4730 H   0  0  0  0  0  0  0  0  0  0  0  0
    5.1727    0.6303    6.7924 H   0  0  0  0  0  0  0  0  0  0  0  0
   -0.3879   -0.6138    5.8660 O   0  0  0  0  0  0  0  0  0  0  0  0
   -0.7643   -1.4133    5.4864 H   0  0  0  0  0  0  0  0  0  0  0  0
   -0.0990   -0.0750    5.1221 H   0  0  0  0  0  0  0  0  0  0  0  0
    3.1276    5.5974    7.6436 O   0  0  0  0  0  0  0  0  0  0  0  0
    3.8624    5.2650    8.1685 H   0  0  0  0  0  0  0  0  0  0  0  0
    3.3464    5.4393    6.7201 H   0  0  0  0  0  0  0  0  0  0  0  0
    2.2171   -4.7073    7.8409 O   0  0  0  0  0  0  0  0  0  0  0  0
    2.1219   -4.8542    6.8948 H   0  0  0  0  0  0  0  0  0  0  0  0
    1.3304   -4.6482    8.2105 H   0  0  0  0  0  0  0  0  0  0  0  0
   -5.3659    0.9444    7.6437 O   0  0  0  0  0  0  0  0  0  0  0  0
   -4.7959    0.5322    6.9870 H   0  0  0  0  0  0  0  0  0  0  0  0
   -6.0480    1.4254    7.1648 H   0  0  0  0  0  0  0  0  0  0  0  0
    8.0782    5.7002    5.0618 O   0  0  0  0  0  0  0  0  0  0  0  0
    8.7013    5.9552    4.3744 H   0  0  0  0  0  0  0  0  0  0  0  0
    7.5059    5.0216    4.6898 H   0  0  0  0  0  0  0  0  0  0  0  0
   -1.1599   -7.0676    3.8136 O   0  0  0  0  0  0  0  0  0  0  0  0
   -0.4813   -7.5913    3.3764 H   0  0  0  0  0  0  0  0  0  0  0  0
   -1.1969   -6.2214    3.3576 H   0  0  0  0  0  0  0  0  0  0  0  0
   -3.4562    4.6625    4.7853 O   0  0  0  0  0  0  0  0  0  0  0  0
   -3.2205    4.0728    4.0625 H   0  0  0  0  0  0  0  0  0  0  0  0
   -2.8425    4.4819    5.5040 H   0  0  0  0  0  0  0  0  0  0  0  0
    6.6770   -3.1408    3.9950 O   0  0  0  0  0  0  0  0  0  0  0  0
    6.5897   -3.6574    4.8023 H   0  0  0  0  0  0  0  0  0  0  0  0
    7.3872   -2.5095    4.1466 H   0  0  0  0  0  0  0  0  0  0  0  0
   -5.7562   -3.6579    4.1473 O   0  0  0  0  0  0  0  0  0  0  0  0
   -5.1217   -4.2378    4.5796 H   0  0  0  0  0  0  0  0  0  0  0  0
   -6.4998   -3.5825    4.7653 H   0  0  0  0  0  0  0  0  0  0  0  0
    3.9136    6.8684    1.7539 O   0  0  0  0  0  0  0  0  0  0  0  0
    4.6571    7.0442    1.1691 H   0  0  0  0  0  0  0  0  0  0  0  0
    4.0507    7.3987    2.5453 H   0  0  0  0  0  0  0  0  0  0  0  0
    3.7753   -9.8151    2.0001 O   0  0  0  0  0  0  0  0  0  0  0  0
    3.6144   -9.4431    1.1272 H   0  0  0  0  0  0  0  0  0  0  0  0
    3.2997  -10.6502    2.0430 H   0  0  0  0  0  0  0  0  0  0  0  0
   -6.0173    5.0131   -0.3409 O   0  0  0  0  0  0  0  0  0  0  0  0
   -5.7040    4.1080   -0.4319 H   0  0  0  0  0  0  0  0  0  0  0  0
   -5.3561    5.4879    0.1721 H   0  0  0  0  0  0  0  0  0  0  0  0
    6.9123    2.4405    0.9337 O   0  0  0  0  0  0  0  0  0  0  0  0
    6.2954    2.6924    0.2405 H   0  0  0  0  0  0  0  0  0  0  0  0
    6.4546    1.8043    1.4914 H   0  0  0  0  0  0  0  0  0  0  0  0
   -4.9835   -8.5104    0.8137 O   0  0  0  0  0  0  0  0  0  0  0  0
   -4.0991   -8.4705    0.4371 H   0  0  0  0  0  0  0  0  0  0  0  0
   -5.0938   -7.7266    1.3612 H   0  0  0  0  0  0  0  0  0  0  0  0
   -0.8132    8.6549   -1.5474 O   0  0  0  0  0  0  0  0  0  0  0  0
   -0.2792    9.1188   -2.2001 H   0  0  0  0  0  0  0  0  0  0  0  0
   -1.5502    9.2342   -1.3286 H   0  0  0  0  0  0  0  0  0  0  0  0
    8.0049   -3.4807   -1.4359 O   0  0  0  0  0  0  0  0  0  0  0  0
    8.8159   -2.9967   -1.2511 H   0  0  0  0  0  0  0  0  0  0  0  0
    8.2308   -4.1715   -2.0670 H   0  0  0  0  0  0  0  0  0  0  0  0
   -5.5926    1.0885   -4.4251 O   0  0  0  0  0  0  0  0  0  0  0  0
   -4.7647    1.1432   -3.9378 H   0  0  0  0  0  0  0  0  0  0  0  0
   -5.9523    0.2114   -4.2623 H   0  0  0  0  0  0  0  0  0  0  0  0
    4.2807    4.7252   -3.5379 O   0  0  0  0  0  0  0  0  0  0  0  0
    3.7197    3.9704   -3.3339 H   0  0  0  0  0  0  0  0  0  0  0  0
    3.8512    5.4995   -3.1621 H   0  0  0  0  0  0  0  0  0  0  0  0
    0.0957   -7.5224   -1.4233 O   0  0  0  0  0  0  0  0  0  0  0  0
    0.2114   -6.6122   -1.1333 H   0  0  0  0  0  0  0  0  0  0  0  0
   -0.3759   -7.4919   -2.2611 H   0  0  0  0  0  0  0  0  0  0  0  0
   -4.8167    6.6482   -5.1291 O   0  0  0  0  0  0  0  0  0  0  0  0
   -5.3309    5.8878   -4.8398 H   0  0  0  0  0  0  0  0  0  0  0  0
   -4.3207    6.9576   -4.3647 H   0  0  0  0  0  0  0  0  0  0  0  0
    8.1593   -0.3172   -5.9108 O   0  0  0  0  0  0  0  0  0  0  0  0
    7.8260   -0.3410   -5.0088 H   0  0  0  0  0  0  0  0  0  0  0  0
    7.9851    0.5641   -6.2552 H   0  0  0  0  0  0  0  0  0  0  0  0
   -1.9383   -1.6637   -7.5954 O   0  0  0  0  0  0  0  0  0  0  0  0
   -1.1132   -1.1876   -7.7299 H   0  0  0  0  0  0  0  0  0  0  0  0
   -2.1318   -1.6166   -6.6539 H   0  0  0  0  0  0  0  0  0  0  0  0
    0.6610    4.0081   -7.5340 O   0  0  0  0  0  0  0  0  0  0  0  0
    0.8676    3.0735   -7.6318 H   0  0  0  0  0  0  0  0  0  0  0  0
    0.4176    4.1403   -6.6125 H   0  0  0  0  0  0  0  0  0  0  0  0
    1.9493   -4.1434   -5.4885 O   0  0  0  0  0  0  0  0  0  0  0  0
    2.4192   -3.3304   -5.6966 H   0  0  0  0  0  0  0  0  0  0  0  0
    1.3806   -3.9449   -4.7381 H   0  0  0  0  0  0  0  0  0  0  0  0
    0.4290    0.6658   -3.7477 O   0  0  0  0  0  0  0  0  0  0  0  0
    1.0540    0.2884   -3.1007 H   0  0  0  0  0  0  0  0  0  0  0  0
   -0.2644    0.9497   -3.1249 H   0  0  0  0  0  0  0  0  0  0  0  0
    1.2363    0.8250   10.5140 O   0  0  0  0  0  0  0  0  0  0  0  0
    1.7268    0.2130    9.9562 H   0  0  0  0  0  0  0  0  0  0  0  0
    0.3051    0.6008   10.4223 H   0  0  0  0  0  0  0  0  0  0  0  0
   -3.2824   -4.5495    9.0007 O   0  0  0  0  0  0  0  0  0  0  0  0
   -3.2040   -3.6170    8.7762 H   0  0  0  0  0  0  0  0  0  0  0  0
   -4.2124   -4.7175    9.1797 H   0  0  0  0  0  0  0  0  0  0  0  0
    0.4308    5.9192    8.5139 O   0  0  0  0  0  0  0  0  0  0  0  0
    1.3492    5.9029    8.2001 H   0  0  0  0  0  0  0  0  0  0  0  0
    0.3017    5.0950    8.9926 H   0  0  0  0  0  0  0  0  0  0  0  0
    4.4669   -3.4386    9.0455 O   0  0  0  0  0  0  0  0  0  0  0  0
    4.6159   -3.9863    9.8220 H   0  0  0  0  0  0  0  0  0  0  0  0
    3.7140   -3.8378    8.5800 H   0  0  0  0  0  0  0  0  0  0  0  0
   -5.7972   -0.0653   10.3006 O   0  0  0  0  0  0  0  0  0  0  0  0
   -5.6297    0.2446    9.3961 H   0  0  0  0  0  0  0  0  0  0  0  0
   -5.9363    0.7402   10.8213 H   0  0  0  0  0  0  0  0  0  0  0  0
    8.5869    5.7058    7.8723 O   0  0  0  0  0  0  0  0  0  0  0  0
    9.0971    4.8926    7.9342 H   0  0  0  0  0  0  0  0  0  0  0  0
    8.3663    5.8111    6.9329 H   0  0  0  0  0  0  0  0  0  0  0  0
    0.5020  -10.1728    7.7125 O   0  0  0  0  0  0  0  0  0  0  0  0
    0.8936   -9.3395    7.4311 H   0  0  0  0  0  0  0  0  0  0  0  0
    0.1666  -10.6038    6.9205 H   0  0  0  0  0  0  0  0  0  0  0  0
   -1.5844    9.7145    4.9969 O   0  0  0  0  0  0  0  0  0  0  0  0
   -0.9223    9.1656    5.4289 H   0  0  0  0  0  0  0  0  0  0  0  0
   -2.3218    9.1393    4.7712 H   0  0  0  0  0  0  0  0  0  0  0  0
    9.5061   -1.4248    8.1667 O   0  0  0  0  0  0  0  0  0  0  0  0
   10.1237   -2.1448    8.3694 H   0  0  0  0  0  0  0  0  0  0  0  0
    8.7308   -1.5841    8.7136 H   0  0  0  0  0  0  0  0  0  0  0  0
   -7.7213   -3.6382    6.2417 O   0  0  0  0  0  0  0  0  0  0  0  0
   -7.9630   -2.8942    6.8018 H   0  0  0  0  0  0  0  0  0  0  0  0
   -8.1495   -4.4173    6.6095 H   0  0  0  0  0  0  0  0  0  0  0  0
    4.1337   10.3930    6.1769 O   0  0  0  0  0  0  0  0  0  0  0  0
    4.9253   10.5580    6.7141 H   0  0  0  0  0  0  0  0  0  0  0  0
    3.4208   10.2328    6.8022 H   0  0  0  0  0  0  0  0  0  0  0  0
    4.1738   -8.1722    4.2898 O   0  0  0  0  0  0  0  0  0  0  0  0
    5.1288   -8.0828    4.3592 H   0  0  0  0  0  0  0  0  0  0  0  0
    4.0145   -8.7421    3.5200 H   0  0  0  0  0  0  0  0  0  0  0  0
   -8.8126    3.2839    3.5096 O   0  0  0  0  0  0  0  0  0  0  0  0
   -7.9628    3.7081    3.6643 H   0  0  0  0  0  0  0  0  0  0  0  0
   -9.3041    3.8554    2.9118 H   0  0  0  0  0  0  0  0  0  0  0  0
   11.3274    1.7259    4.0654 O   0  0  0  0  0  0  0  0  0  0  0  0
   10.8669    2.0274    3.2760 H   0  0  0  0  0  0  0  0  0  0  0  0
   10.6569    1.4095    4.6793 H   0  0  0  0  0  0  0  0  0  0  0  0
   -6.4559  -10.9038    1.2618 O   0  0  0  0  0  0  0  0  0  0  0  0
   -5.9281  -10.1067    1.0867 H   0  0  0  0  0  0  0  0  0  0  0  0
   -7.3703  -10.6533    1.1002 H   0  0  0  0  0  0  0  0  0  0  0  0
    1.8751   12.2315    1.6833 O   0  0  0  0  0  0  0  0  0  0  0  0
    1.9204   11.4053    1.1917 H   0  0  0  0  0  0  0  0  0  0  0  0
    1.7564   11.9982    2.6089 H   0  0  0  0  0  0  0  0  0  0  0  0
    8.8047   -7.9655    1.3493 O   0  0  0  0  0  0  0  0  0  0  0  0
    8.8784   -7.0562    1.6567 H   0  0  0  0  0  0  0  0  0  0  0  0
    8.0882   -7.9863    0.7071 H   0  0  0  0  0  0  0  0  0  0  0  0
  -11.1613   -1.8071    3.4174 O   0  0  0  0  0  0  0  0  0  0  0  0
  -10.5862   -2.2665    2.7972 H   0  0  0  0  0  0  0  0  0  0  0  0
  -10.7364   -0.9700    3.6296 H   0  0  0  0  0  0  0  0  0  0  0  0
    7.3128   10.8311    2.0552 O   0  0  0  0  0  0  0  0  0  0  0  0
    7.5443   10.4725    2.9178 H   0  0  0  0  0  0  0  0  0  0  0  0
    6.5041   11.3393    2.1720 H   0  0  0  0  0  0  0  0  0  0  0  0
    1.9193  -12.7019   -1.9648 O   0  0  0  0  0  0  0  0  0  0  0  0
    1.5728  -11.8642   -2.2882 H   0  0  0  0  0  0  0  0  0  0  0  0
    1.4848  -13.3952   -2.4703 H   0  0  0  0  0  0  0  0  0  0  0  0
   -6.0936   10.3640   -1.4117 O   0  0  0  0  0  0  0  0  0  0  0  0
   -6.7404    9.6519   -1.4383 H   0  0  0  0  0  0  0  0  0  0  0  0
   -6.2595   10.9197   -2.1793 H   0  0  0  0  0  0  0  0  0  0  0  0
   11.5639    0.9897   -1.5243 O   0  0  0  0  0  0  0  0  0  0  0  0
   12.0861    1.7291   -1.1988 H   0  0  0  0  0  0  0  0  0  0  0  0
   10.6612    1.3074   -1.6252 H   0  0  0  0  0  0  0  0  0  0  0  0
   -7.6541   -4.5799   -1.4966 O   0  0  0  0  0  0  0  0  0  0  0  0
   -7.9820   -5.4792   -1.3967 H   0  0  0  0  0  0  0  0  0  0  0  0
   -8.3286   -4.0913   -1.9786 H   0  0  0  0  0  0  0  0  0  0  0  0
    4.4374   10.1090   -2.5160 O   0  0  0  0  0  0  0  0  0  0  0  0
    5.3705   10.0763   -2.2831 H   0  0  0  0  0  0  0  0  0  0  0  0
    4.2881   10.9495   -2.9597 H   0  0  0  0  0  0  0  0  0  0  0  0
    5.1103   -7.8336   -2.9717 O   0  0  0  0  0  0  0  0  0  0  0  0
    4.6127   -8.4552   -3.5119 H   0  0  0  0  0  0  0  0  0  0  0  0
    4.6514   -6.9896   -3.0213 H   0  0  0  0  0  0  0  0  0  0  0  0
   -9.8642    4.1258   -4.8792 O   0  0  0  0  0  0  0  0  0  0  0  0
   -9.6038    3.7645   -5.7321 H   0  0  0  0  0  0  0  0  0  0  0  0
   -9.4323    3.5903   -4.2062 H   0  0  0  0  0  0  0  0  0  0  0  0
    9.6962    4.7595   -4.7589 O   0  0  0  0  0  0  0  0  0  0  0  0
   10.0835    5.0962   -5.5726 H   0  0  0  0  0  0  0  0  0  0  0  0
    8.7526    4.9443   -4.7991 H   0  0  0  0  0  0  0  0  0  0  0  0
   -2.4734   -7.1418   -6.4713 O   0  0  0  0  0  0  0  0  0  0  0  0
   -2.4432   -7.7745   -7.1952 H   0  0  0  0  0  0  0  0  0  0  0  0
   -2.0321   -6.3441   -6.7798 H   0  0  0  0  0  0  0  0  0  0  0  0
   -1.0145    9.2506   -8.2167 O   0  0  0  0  0  0  0  0  0  0  0  0
   -0.6146    8.3766   -8.2698 H   0  0  0  0  0  0  0  0  0  0  0  0
   -1.8377    9.1539   -7.7278 H   0  0  0  0  0  0  0  0  0  0  0  0
    8.6050   -2.7270   -7.3843 O   0  0  0  0  0  0  0  0  0  0  0  0
    9.4526   -3.0325   -7.0468 H   0  0  0  0  0  0  0  0  0  0  0  0
    8.4147   -1.8986   -6.9157 H   0  0  0  0  0  0  0  0  0  0  0  0
   -6.6577   -3.9292   -6.6791 O   0  0  0  0  0  0  0  0  0  0  0  0
   -6.0075   -4.0619   -5.9821 H   0  0  0  0  0  0  0  0  0  0  0  0
   -6.1733   -3.8916   -7.5097 H   0  0  0  0  0  0  0  0  0  0  0  0
    6.0752    4.0468   -8.6969 O   0  0  0  0  0  0  0  0  0  0  0  0
    5.4037    4.1099   -8.0106 H   0  0  0  0  0  0  0  0  0  0  0  0
    5.6131    3.9452   -9.5347 H   0  0  0  0  0  0  0  0  0  0  0  0
    0.9700   -5.4513  -10.4141 O   0  0  0  0  0  0  0  0  0  0  0  0
    1.5465   -6.0007   -9.8733 H   0  0  0  0  0  0  0  0  0  0  0  0
    1.0476   -4.5505  -10.0839 H   0  0  0  0  0  0  0  0  0  0  0  0
   -4.1697    3.0558   -9.3456 O   0  0  0  0  0  0  0  0  0  0  0  0
   -4.1868    2.2274   -8.8563 H   0  0  0  0  0  0  0  0  0  0  0  0
   -3.9918    3.7523   -8.7058 H   0  0  0  0  0  0  0  0  0  0  0  0
    3.5098   -0.5286   -9.3831 O   0  0  0  0  0  0  0  0  0  0  0  0
    4.3886   -0.7036   -9.0314 H   0  0  0  0  0  0  0  0  0  0  0  0
    3.6264   -0.2001  -10.2800 H   0  0  0  0  0  0  0  0  0  0  0  0
    3.8172   -1.7502   14.2864 O   0  0  0  0  0  0  0  0  0  0  0  0
    4.1159   -1.0011   13.7614 H   0  0  0  0  0  0  0  0  0  0  0  0
    2.8558   -1.7587   14.2410 H   0  0  0  0  0  0  0  0  0  0  0  0
   -1.7936   -2.3199   13.5873 O   0  0  0  0  0  0  0  0  0  0  0  0
   -1.6195   -3.2098   13.2641 H   0  0  0  0  0  0  0  0  0  0  0  0
   -2.5591   -1.9895   13.1064 H   0  0  0  0  0  0  0  0  0  0  0  0
    1.5556   10.1527   11.2818 O   0  0  0  0  0  0  0  0  0  0  0  0
    2.1434    9.3959   11.1916 H   0  0  0  0  0  0  0  0  0  0  0  0
    0.6578    9.8246   11.1694 H   0  0  0  0  0  0  0  0  0  0  0  0
    5.4762   -6.6339   13.6777 O   0  0  0  0  0  0  0  0  0  0  0  0
    5.9726   -5.8697   13.9872 H   0  0  0  0  0  0  0  0  0  0  0  0
    4.5436   -6.4302   13.8026 H   0  0  0  0  0  0  0  0  0  0  0  0
   -6.2000    2.5389   11.4791 O   0  0  0  0  0  0  0  0  0  0  0  0
   -5.4909    3.1894   11.4549 H   0  0  0  0  0  0  0  0  0  0  0  0
   -7.0188    3.0085   11.2911 H   0  0  0  0  0  0  0  0  0  0  0  0
    7.7777    5.1288   12.9984 O   0  0  0  0  0  0  0  0  0  0  0  0
    8.5420    4.7591   12.5449 H   0  0  0  0  0  0  0  0  0  0  0  0
    7.2894    5.6445   12.3487 H   0  0  0  0  0  0  0  0  0  0  0  0
    0.1158   -7.4718   12.1618 O   0  0  0  0  0  0  0  0  0  0  0  0
    0.6805   -8.2277   11.9732 H   0  0  0  0  0  0  0  0  0  0  0  0
   -0.5650   -7.4548   11.4815 H   0  0  0  0  0  0  0  0  0  0  0  0
   -3.9295    9.0909    9.7161 O   0  0  0  0  0  0  0  0  0  0  0  0
   -3.4353    8.3321    9.3892 H   0  0  0  0  0  0  0  0  0  0  0  0
   -3.6218    9.8594    9.2255 H   0  0  0  0  0  0  0  0  0  0  0  0
   11.1465   -3.6512    8.8843 O   0  0  0  0  0  0  0  0  0  0  0  0
   10.9599   -4.5443    8.5775 H   0  0  0  0  0  0  0  0  0  0  0  0
   12.0624   -3.6360    9.1779 H   0  0  0  0  0  0  0  0  0  0  0  0
   -8.8222   -3.9973   11.3941 O   0  0  0  0  0  0  0  0  0  0  0  0
   -7.9731   -3.8799   11.8318 H   0  0  0  0  0  0  0  0  0  0  0  0
   -9.1949   -3.1188   11.2691 H   0  0  0  0  0  0  0  0  0  0  0  0
    6.4249   10.7831    7.8212 O   0  0  0  0  0  0  0  0  0  0  0  0
    6.8887   10.0112    8.1612 H   0  0  0  0  0  0  0  0  0  0  0  0
    7.0682   11.4947    7.7482 H   0  0  0  0  0  0  0  0  0  0  0  0
    5.7355  -11.0237    8.1571 O   0  0  0  0  0  0  0  0  0  0  0  0
    5.3010  -10.2430    8.5155 H   0  0  0  0  0  0  0  0  0  0  0  0
    5.0937  -11.4670    7.5934 H   0  0  0  0  0  0  0  0  0  0  0  0
   -8.4828    6.1773    8.2082 O   0  0  0  0  0  0  0  0  0  0  0  0
   -8.9838    6.2471    7.3897 H   0  0  0  0  0  0  0  0  0  0  0  0
   -7.6886    6.7092    8.0957 H   0  0  0  0  0  0  0  0  0  0  0  0
   13.2315    2.7101    8.9679 O   0  0  0  0  0  0  0  0  0  0  0  0
   12.6920    1.9181    8.8759 H   0  0  0  0  0  0  0  0  0  0  0  0
   13.4138    3.0298    8.0786 H   0  0  0  0  0  0  0  0  0  0  0  0
   -5.7900   -8.5950    6.3794 O   0  0  0  0  0  0  0  0  0  0  0  0
   -4.8400   -8.4724    6.4744 H   0  0  0  0  0  0  0  0  0  0  0  0
   -5.9215   -9.2613    5.6977 H   0  0  0  0  0  0  0  0  0  0  0  0
   -2.5335   14.8284    2.9002 O   0  0  0  0  0  0  0  0  0  0  0  0
   -2.5734   13.9225    3.2229 H   0  0  0  0  0  0  0  0  0  0  0  0
   -1.6393   15.1449    3.0631 H   0  0  0  0  0  0  0  0  0  0  0  0
   10.5226   -8.6740    6.6338 O   0  0  0  0  0  0  0  0  0  0  0  0
   10.3964   -8.8487    5.6958 H   0  0  0  0  0  0  0  0  0  0  0  0
    9.8779   -9.2080    7.1084 H   0  0  0  0  0  0  0  0  0  0  0  0
  -12.6929   -3.2417    5.3452 O   0  0  0  0  0  0  0  0  0  0  0  0
  -12.1431   -2.7744    4.6937 H   0  0  0  0  0  0  0  0  0  0  0  0
  -13.5913   -2.9299    5.2026 H   0  0  0  0  0  0  0  0  0  0  0  0
   12.4581   10.8452    2.6596 O   0  0  0  0  0  0  0  0  0  0  0  0
   12.1534    9.9407    2.5344 H   0  0  0  0  0  0  0  0  0  0  0  0
   12.0066   11.3860    2.0037 H   0  0  0  0  0  0  0  0  0  0  0  0
   -1.1448  -12.2296    2.6722 O   0  0  0  0  0  0  0  0  0  0  0  0
   -1.0125  -12.4059    1.7354 H   0  0  0  0  0  0  0  0  0  0  0  0
   -2.0733  -12.0035    2.7862 H   0  0  0  0  0  0  0  0  0  0  0  0
   -7.4633    8.4450    3.5203 O   0  0  0  0  0  0  0  0  0  0  0  0
   -6.7496    8.9756    3.1534 H   0  0  0  0  0  0  0  0  0  0  0  0
   -8.1562    8.4045    2.8536 H   0  0  0  0  0  0  0  0  0  0  0  0
   12.9497   -2.7670    1.5188 O   0  0  0  0  0  0  0  0  0  0  0  0
   13.6746   -2.1570    1.6858 H   0  0  0  0  0  0  0  0  0  0  0  0
   12.1520   -2.3543    1.8649 H   0  0  0  0  0  0  0  0  0  0  0  0
  -10.1977   -7.1227    2.4298 O   0  0  0  0  0  0  0  0  0  0  0  0
   -9.4006   -6.7767    2.8445 H   0  0  0  0  0  0  0  0  0  0  0  0
  -10.9283   -6.9330    3.0260 H   0  0  0  0  0  0  0  0  0  0  0  0
    4.7657   15.3490   -1.3457 O   0  0  0  0  0  0  0  0  0  0  0  0
    5.0799   14.8979   -0.5555 H   0  0  0  0  0  0  0  0  0  0  0  0
    3.8041   15.3429   -1.3081 H   0  0  0  0  0  0  0  0  0  0  0  0
    7.4297  -12.3974   -2.5952 O   0  0  0  0  0  0  0  0  0  0  0  0
    7.8844  -11.6111   -2.2769 H   0  0  0  0  0  0  0  0  0  0  0  0
    6.5961  -12.4525   -2.1168 H   0  0  0  0  0  0  0  0  0  0  0  0
  -11.1709    6.6768   -0.4255 O   0  0  0  0  0  0  0  0  0  0  0  0
  -11.7553    6.0873   -0.9118 H   0  0  0  0  0  0  0  0  0  0  0  0
  -10.3317    6.6890   -0.8968 H   0  0  0  0  0  0  0  0  0  0  0  0
   10.7790    6.1255    0.1457 O   0  0  0  0  0  0  0  0  0  0  0  0
   11.2645    6.4518   -0.6180 H   0  0  0  0  0  0  0  0  0  0  0  0
    9.9335    5.7991   -0.1781 H   0  0  0  0  0  0  0  0  0  0  0  0
   -3.1635  -12.4711   -2.5449 O   0  0  0  0  0  0  0  0  0  0  0  0
   -3.7960  -12.9364   -1.9887 H   0  0  0  0  0  0  0  0  0  0  0  0
   -3.6166  -11.6983   -2.8965 H   0  0  0  0  0  0  0  0  0  0  0  0
   -1.7728   13.7887   -2.1764 O   0  0  0  0  0  0  0  0  0  0  0  0
   -1.0873   13.9839   -1.5295 H   0  0  0  0  0  0  0  0  0  0  0  0
   -2.6141   13.8221   -1.7102 H   0  0  0  0  0  0  0  0  0  0  0  0
   12.6818   -4.0043   -3.7068 O   0  0  0  0  0  0  0  0  0  0  0  0
   12.9848   -4.4205   -2.8937 H   0  0  0  0  0  0  0  0  0  0  0  0
   12.8168   -3.0566   -3.6036 H   0  0  0  0  0  0  0  0  0  0  0  0
  -10.9529   -1.0322   -4.5315 O   0  0  0  0  0  0  0  0  0  0  0  0
  -10.2906   -1.3365   -5.1602 H   0  0  0  0  0  0  0  0  0  0  0  0
  -11.5483   -0.4499   -5.0132 H   0  0  0  0  0  0  0  0  0  0  0  0
    8.4117   12.7592   -4.6800 O   0  0  0  0  0  0  0  0  0  0  0  0
    7.9318   13.5321   -4.3653 H   0  0  0  0  0  0  0  0  0  0  0  0
    7.9524   12.4412   -5.4639 H   0  0  0  0  0  0  0  0  0  0  0  0
    3.4836  -11.9243   -6.6493 O   0  0  0  0  0  0  0  0  0  0  0  0
    4.2268  -12.2843   -6.1546 H   0  0  0  0  0  0  0  0  0  0  0  0
    3.8297  -11.2180   -7.2040 H   0  0  0  0  0  0  0  0  0  0  0  0
   -9.6387    9.3470   -5.1203 O   0  0  0  0  0  0  0  0  0  0  0  0
  -10.4439    8.8237   -5.0593 H   0  0  0  0  0  0  0  0  0  0  0  0
   -8.9750    8.7946   -5.5454 H   0  0  0  0  0  0  0  0  0  0  0  0
   13.5464    1.1043   -6.3968 O   0  0  0  0  0  0  0  0  0  0  0  0
   14.0368    1.0426   -5.5712 H   0  0  0  0  0  0  0  0  0  0  0  0
   12.6170    1.1983   -6.1642 H   0  0  0  0  0  0  0  0  0  0  0  0
   -7.4498   -8.8703   -4.7091 O   0  0  0  0  0  0  0  0  0  0  0  0
   -6.5518   -8.5320   -4.6341 H   0  0  0  0  0  0  0  0  0  0  0  0
   -7.9420   -8.2421   -5.2466 H   0  0  0  0  0  0  0  0  0  0  0  0
    4.2988   10.4537   -7.6865 O   0  0  0  0  0  0  0  0  0  0  0  0
    4.1843    9.5487   -7.3800 H   0  0  0  0  0  0  0  0  0  0  0  0
    3.4339   10.7672   -7.9682 H   0  0  0  0  0  0  0  0  0  0  0  0
    5.8194   -7.0658   -8.1709 O   0  0  0  0  0  0  0  0  0  0  0  0
    6.7140   -6.8917   -8.4788 H   0  0  0  0  0  0  0  0  0  0  0  0
    5.5927   -6.3588   -7.5582 H   0  0  0  0  0  0  0  0  0  0  0  0
   -8.8934    0.6811   -9.2572 O   0  0  0  0  0  0  0  0  0  0  0  0
   -8.3716   -0.1260   -9.2040 H   0  0  0  0  0  0  0  0  0  0  0  0
   -8.5438    1.1917   -9.9939 H   0  0  0  0  0  0  0  0  0  0  0  0
   10.2872    6.6846   -9.9910 O   0  0  0  0  0  0  0  0  0  0  0  0
   10.1960    5.7608  -10.2455 H   0  0  0  0  0  0  0  0  0  0  0  0
    9.4143    7.0836  -10.0641 H   0  0  0  0  0  0  0  0  0  0  0  0
   -1.3960   -6.4954  -11.6102 O   0  0  0  0  0  0  0  0  0  0  0  0
   -1.0851   -6.8285  -12.4570 H   0  0  0  0  0  0  0  0  0  0  0  0
   -0.6170   -6.1093  -11.1760 H   0  0  0  0  0  0  0  0  0  0  0  0
   -1.8720    6.7533  -12.9489 O   0  0  0  0  0  0  0  0  0  0  0  0
   -2.3329    6.0819  -12.4357 H   0  0  0  0  0  0  0  0  0  0  0  0
   -2.1506    7.6093  -12.6088 H   0  0  0  0  0  0  0  0  0  0  0  0
    8.2049    0.1576  -11.7076 O   0  0  0  0  0  0  0  0  0  0  0  0
    8.3664   -0.7896  -11.6551 H   0  0  0  0  0  0  0  0  0  0  0  0
    8.5320    0.5432  -10.8884 H   0  0  0  0  0  0  0  0  0  0  0  0
   -5.0148   -2.1977  -11.8301 O   0  0  0  0  0  0  0  0  0  0  0  0
   -4.5430   -3.0359  -11.8002 H   0  0  0  0  0  0  0  0  0  0  0  0
   -4.3750   -1.5094  -11.6221 H   0  0  0  0  0  0  0  0  0  0  0  0
    2.3116    3.5822  -12.8791 O   0  0  0  0  0  0  0  0  0  0  0  0
    1.9252    3.9951  -13.6572 H   0  0  0  0  0  0  0  0  0  0  0  0
    1.7424    3.8011  -12.1343 H   0  0  0  0  0  0  0  0  0  0  0  0
  1  2  4  0  0  0  0
  2  3  1  0  0  0  0
  3  4  4  0  0  0  0
  3  5  4  0  0  0  0
  5  6  4  0  0  0  0
  1  7  1  0  0  0  0
  6  7  4  0  0  0  0
  7  8  1  0  0  0  0
  2  9  4  0  0  0  0
  5 10  1  0  0  0  0
  6 11  1  0  0  0  0
  8 12  1  0  0  0  0
  8 13  1  0  0  0  0
  8 14  1  0  0  0  0
  4 15  1  0  0  0  0
  9 15  1  0  0  0  0
 16 17  4  0  0  0  0
 17 18  1  0  0  0  0
 15 19  1  0  0  0  0
 18 19  4  0  0  0  0
 18 20  4  0  0  0  0
 20 21  4  0  0  0  0
 16 22  1  0  0  0  0
 21 22  4  0  0  0  0
 22 23  1  0  0  0  0
 15 24  1  0  0  0  0
 17 24  4  0  0  0  0
 20 25  1  0  0  0  0
 21 26  1  0  0  0  0
 23 27  1  0  0  0  0
 23 28  1  0  0  0  0
 23 29  1  0  0  0  0
 30 31  4  0  0  0  0
 31 32  1  0  0  0  0
 15 33  1  0  0  0  0
 32 33  4  0  0  0  0
 32 34  4  0  0  0  0
 34 35  4  0  0  0  0
 30 36  1  0  0  0  0
 35 36  4  0  0  0  0
 36 37  1  0  0  0  0
 15 38  1  0  0  0  0
 31 38  4  0  0  0  0
 34 39  1  0  0  0  0
 35 40  1  0  0  0  0
 37 41  1  0  0  0  0
 37 42  1  0  0  0  0
 37 43  1  0  0  0  0
 16 44  1  0  0  0  0
 44 45  1  0  0  0  0
 44 46  1  0  0  0  0
 44 47  1  0  0  0  0
  1 48  1  0  0  0  0
 48 49  1  0  0  0  0
 48 50  1  0  0  0  0
 48 51  1  0  0  0  0
 30 52  1  0  0  0  0
 52 53  1  0  0  0  0
 52 54  1  0  0  0  0
 52 55  1  0  0  0  0
 56 57  1  0  0  0  0
 56 58  1  0  0  0  0
 59 60  1  0  0  0  0
 59 61  1  0  0  0  0
 62 63  1  0  0  0  0
 62 64  1  0  0  0  0
 65 66  1  0  0  0  0
 65 67  1  0  0  0  0
 68 69  1  0  0  0  0
 68 70  1  0  0  0  0
 71 72  1  0  0  0  0
 71 73  1  0  0  0  0
 74 75  1  0  0  0  0
 74 76  1  0  0  0  0
 77 78  1  0  0  0  0
 77 79  1  0  0  0  0
 80 81  1  0  0  0  0
 80 82  1  0  0  0  0
 83 84  1  0  0  0  0
 83 85  1  0  0  0  0
 86 87  1  0  0  0  0
 86 88  1  0  0  0  0
 89 90  1  0  0  0  0
 89 91  1  0  0  0  0
 92 93  1  0  0  0  0
 92 94  1  0  0  0  0
 95 96  1  0  0  0  0
 95 97  1  0  0  0  0
 98 99  1  0  0  0  0
 98100  1  0  0  0  0
101102  1  0  0  0  0
101103  1  0  0  0  0
104105  1  0  0  0  0
104106  1  0  0  0  0
107108  1  0  0  0  0
107109  1  0  0  0  0
110111  1  0  0  0  0
110112  1  0  0  0  0
113114  1  0  0  0  0
113115  1  0  0  0  0
116117  1  0  0  0  0
116118  1  0  0  0  0
119120  1  0  0  0  0
119121  1  0  0  0  0
122123  1  0  0  0  0
122124  1  0  0  0  0
125126  1  0  0  0  0
125127  1  0  0  0  0
128129  1  0  0  0  0
128130  1  0  0  0  0
131132  1  0  0  0  0
131133  1  0  0  0  0
134135  1  0  0  0  0
134136  1  0  0  0  0
137138  1  0  0  0  0
137139  1  0  0  0  0
140141  1  0  0  0  0
140142  1  0  0  0  0
143144  1  0  0  0  0
143145  1  0  0  0  0
146147  1  0  0  0  0
146148  1  0  0  0  0
149150  1  0  0  0  0
149151  1  0  0  0  0
152153  1  0  0  0  0
152154  1  0  0  0  0
155156  1  0  0  0  0
155157  1  0  0  0  0
158159  1  0  0  0  0
158160  1  0  0  0  0
161162  1  0  0  0  0
161163  1  0  0  0  0
164165  1  0  0  0  0
164166  1  0  0  0  0
167168  1  0  0  0  0
167169  1  0  0  0  0
170171  1  0  0  0  0
170172  1  0  0  0  0
173174  1  0  0  0  0
173175  1  0  0  0  0
176177  1  0  0  0  0
176178  1  0  0  0  0
179180  1  0  0  0  0
179181  1  0  0  0  0
182183  1  0  0  0  0
182184  1  0  0  0  0
185186  1  0  0  0  0
185187  1  0  0  0  0
188189  1  0  0  0  0
188190  1  0  0  0  0
191192  1  0  0  0  0
191193  1  0  0  0  0
194195  1  0  0  0  0
194196  1  0  0  0  0
197198  1  0  0  0  0
197199  1  0  0  0  0
200201  1  0  0  0  0
200202  1  0  0  0  0
203204  1  0  0  0  0
203205  1  0  0  0  0
206207  1  0  0  0  0
206208  1  0  0  0  0
209210  1  0  0  0  0
209211  1  0  0  0  0
212213  1  0  0  0  0
212214  1  0  0  0  0
215216  1  0  0  0  0
215217  1  0  0  0  0
218219  1  0  0  0  0
218220  1  0  0  0  0
221222  1  0  0  0  0
221223  1  0  0  0  0
224225  1  0  0  0  0
224226  1  0  0  0  0
227228  1  0  0  0  0
227229  1  0  0  0  0
230231  1  0  0  0  0
230232  1  0  0  0  0
233234  1  0  0  0  0
233235  1  0  0  0  0
236237  1  0  0  0  0
236238  1  0  0  0  0
239240  1  0  0  0  0
239241  1  0  0  0  0
242243  1  0  0  0  0
242244  1  0  0  0  0
245246  1  0  0  0  0
245247  1  0  0  0  0
248249  1  0  0  0  0
248250  1  0  0  0  0
251252  1  0  0  0  0
251253  1  0  0  0  0
254255  1  0  0  0  0
254256  1  0  0  0  0
257258  1  0  0  0  0
257259  1  0  0  0  0
260261  1  0  0  0  0
260262  1  0  0  0  0
263264  1  0  0  0  0
263265  1  0  0  0  0
266267  1  0  0  0  0
266268  1  0  0  0  0
269270  1  0  0  0  0
269271  1  0  0  0  0
272273  1  0  0  0  0
272274  1  0  0  0  0
275276  1  0  0  0  0
275277  1  0  0  0  0
278279  1  0  0  0  0
278280  1  0  0  0  0
281282  1  0  0  0  0
281283  1  0  0  0  0
284285  1  0  0  0  0
284286  1  0  0  0  0
287288  1  0  0  0  0
287289  1  0  0  0  0
290291  1  0  0  0  0
290292  1  0  0  0  0
293294  1  0  0  0  0
293295  1  0  0  0  0
296297  1  0  0  0  0
296298  1  0  0  0  0
299300  1  0  0  0  0
299301  1  0  0  0  0
302303  1  0  0  0  0
302304  1  0  0  0  0
305306  1  0  0  0  0
305307  1  0  0  0  0
308309  1  0  0  0  0
308310  1  0  0  0  0
311312  1  0  0  0  0
311313  1  0  0  0  0
314315  1  0  0  0  0
314316  1  0  0  0  0
317318  1  0  0  0  0
317319  1  0  0  0  0
320321  1  0  0  0  0
320322  1  0  0  0  0
323324  1  0  0  0  0
323325  1  0  0  0  0
326327  1  0  0  0  0
326328  1  0  0  0  0
329330  1  0  0  0  0
329331  1  0  0  0  0
332333  1  0  0  0  0
332334  1  0  0  0  0
335336  1  0  0  0  0
335337  1  0  0  0  0
338339  1  0  0  0  0
338340  1  0  0  0  0
341342  1  0  0  0  0
341343  1  0  0  0  0
344345  1  0  0  0  0
344346  1  0  0  0  0
347348  1  0  0  0  0
347349  1  0  0  0  0
350351  1  0  0  0  0
350352  1  0  0  0  0
353354  1  0  0  0  0
353355  1  0  0  0  0
356357  1  0  0  0  0
356358  1  0  0  0  0
359360  1  0  0  0  0
359361  1  0  0  0  0
362363  1  0  0  0  0
362364  1  0  0  0  0
365366  1  0  0  0  0
365367  1  0  0  0  0
368369  1  0  0  0  0
368370  1  0  0  0  0
371372  1  0  0  0  0
371373  1  0  0  0  0
M  CHG  1   1  -1
M  END
