 xtb: 6.6.0 (conda-forge)
          10292411563D

 43 48  0     0  0            999 V2000
    1.8645   -1.5111   -0.9712 C   0  0  0  0  0  0  0  0  0  0  0  0
    0.4437   -1.5018   -0.4961 C   0  0  0  0  0  0  0  0  0  0  0  0
   -0.2729   -0.3421   -0.2404 C   0  0  0  0  0  0  0  0  0  0  0  0
   -1.6728   -0.4913    0.2193 C   0  0  0  0  0  0  0  0  0  0  0  0
   -2.3626    0.5319    0.4498 O   0  0  0  0  0  0  0  0  0  0  0  0
   -2.1534   -1.8280    0.3748 C   0  0  0  0  0  0  0  0  0  0  0  0
   -1.3439   -2.8812    0.0969 C   0  0  0  0  0  0  0  0  0  0  0  0
   -0.0878   -2.7587   -0.3254 O   0  0  0  0  0  0  0  0  0  0  0  0
    0.2038    0.8343   -0.3852 O   0  0  0  0  0  0  0  0  0  0  0  0
    2.5123   -2.0313   -0.2640 H   0  0  0  0  0  0  0  0  0  0  0  0
    1.9522   -2.0065   -1.9395 H   0  0  0  0  0  0  0  0  0  0  0  0
    2.1831   -0.4768   -1.0619 H   0  0  0  0  0  0  0  0  0  0  0  0
   -3.1644   -1.9935    0.7135 H   0  0  0  0  0  0  0  0  0  0  0  0
   -1.6408   -3.9156    0.1916 H   0  0  0  0  0  0  0  0  0  0  0  0
   -1.3395    2.2744    0.1583 Fe  0  0  0  0  0  0  0  0  0  0  0  0
    1.1450    6.3481   -1.6014 C   0  0  0  0  0  0  0  0  0  0  0  0
    0.2248    5.3673   -2.2616 C   0  0  0  0  0  0  0  0  0  0  0  0
   -0.3693    4.3049   -1.5965 C   0  0  0  0  0  0  0  0  0  0  0  0
   -1.2496    3.4115   -2.3836 C   0  0  0  0  0  0  0  0  0  0  0  0
   -1.8092    2.4388   -1.8207 O   0  0  0  0  0  0  0  0  0  0  0  0
   -1.4011    3.7259   -3.7695 C   0  0  0  0  0  0  0  0  0  0  0  0
   -0.7599    4.7977   -4.3005 C   0  0  0  0  0  0  0  0  0  0  0  0
    0.0312    5.6090   -3.6018 O   0  0  0  0  0  0  0  0  0  0  0  0
   -0.2009    4.0610   -0.3537 O   0  0  0  0  0  0  0  0  0  0  0  0
    2.1331    6.3330   -2.0642 H   0  0  0  0  0  0  0  0  0  0  0  0
    0.7535    7.3644   -1.6704 H   0  0  0  0  0  0  0  0  0  0  0  0
    1.2295    6.0612   -0.5572 H   0  0  0  0  0  0  0  0  0  0  0  0
   -2.0291    3.1055   -4.3898 H   0  0  0  0  0  0  0  0  0  0  0  0
   -0.8293    5.0943   -5.3370 H   0  0  0  0  0  0  0  0  0  0  0  0
   -0.7996    2.6952    5.1951 C   0  0  0  0  0  0  0  0  0  0  0  0
   -1.8009    3.2689    4.2400 C   0  0  0  0  0  0  0  0  0  0  0  0
   -1.7792    3.0344    2.8732 C   0  0  0  0  0  0  0  0  0  0  0  0
   -2.8317    3.6750    2.0518 C   0  0  0  0  0  0  0  0  0  0  0  0
   -2.8532    3.4831    0.8115 O   0  0  0  0  0  0  0  0  0  0  0  0
   -3.7734    4.4932    2.7491 C   0  0  0  0  0  0  0  0  0  0  0  0
   -3.6819    4.6440    4.0947 C   0  0  0  0  0  0  0  0  0  0  0  0
   -2.7440    4.0678    4.8433 O   0  0  0  0  0  0  0  0  0  0  0  0
   -0.9100    2.2997    2.2927 O   0  0  0  0  0  0  0  0  0  0  0  0
   -0.2645    3.4852    5.7240 H   0  0  0  0  0  0  0  0  0  0  0  0
   -1.2823    2.0573    5.9370 H   0  0  0  0  0  0  0  0  0  0  0  0
   -0.0964    2.1068    4.6132 H   0  0  0  0  0  0  0  0  0  0  0  0
   -4.5585    4.9882    2.1988 H   0  0  0  0  0  0  0  0  0  0  0  0
   -4.3587    5.2439    4.6856 H   0  0  0  0  0  0  0  0  0  0  0  0
  1  2  1  0  0  0  0
  2  3  4  0  0  0  0
  3  4  1  0  0  0  0
  4  5  4  0  0  0  0
  4  6  1  0  0  0  0
  6  7  2  0  0  0  0
  2  8  1  0  0  0  0
  7  8  1  0  0  0  0
  3  9  4  0  0  0  0
  1 10  1  0  0  0  0
  1 11  1  0  0  0  0
  1 12  1  0  0  0  0
  6 13  1  0  0  0  0
  7 14  1  0  0  0  0
  5 15  1  0  0  0  0
  9 15  1  0  0  0  0
 16 17  1  0  0  0  0
 17 18  4  0  0  0  0
 18 19  1  0  0  0  0
 15 20  1  0  0  0  0
 19 20  4  0  0  0  0
 19 21  1  0  0  0  0
 21 22  2  0  0  0  0
 17 23  1  0  0  0  0
 22 23  1  0  0  0  0
 15 24  1  0  0  0  0
 18 24  4  0  0  0  0
 16 25  1  0  0  0  0
 16 26  1  0  0  0  0
 16 27  1  0  0  0  0
 21 28  1  0  0  0  0
 22 29  1  0  0  0  0
 30 31  1  0  0  0  0
 31 32  4  0  0  0  0
 32 33  1  0  0  0  0
 15 34  1  0  0  0  0
 33 34  4  0  0  0  0
 33 35  1  0  0  0  0
 35 36  2  0  0  0  0
 31 37  1  0  0  0  0
 36 37  1  0  0  0  0
 15 38  1  0  0  0  0
 32 38  4  0  0  0  0
 30 39  1  0  0  0  0
 30 40  1  0  0  0  0
 30 41  1  0  0  0  0
 35 42  1  0  0  0  0
 36 43  1  0  0  0  0
M  CHG  1   1  -1
M  END
