14

C 2.2185228117712437 -0.2960863580061136 0.09429196157101317
C 0.7297228035623131 -0.08841285939010017 0.033950596787354854
C 0.1365192633211851 1.0886531883637385 0.367021811502229
C -1.3941937076013724 1.0883811063755955 0.23520044164790366
O -2.138389077597969 2.039466590835278 0.48151250301654297
C -2.042673278227394 -0.1552109315710331 -0.22643066977535956
C -1.2859215861314197 -1.2107868650602065 -0.5057763198005323
O 0.0727889466191243 -1.230996012550596 -0.39543570144767826
O 0.6682095612044895 2.1681756735554916 0.765064926028823
H 2.451925822470655 -1.1149136819750947 0.783240373306601
H 2.596547491162497 -0.5663710528065755 -0.8974956940264579
H 2.7734909699246937 0.5848690116632554 0.4295569515965311
H -3.1175952855147258 -0.14772352859230747 -0.3165018325088926
H -1.6689547349634313 -2.159044280841117 -0.8481993478981297
