55
Molecule with added oxygen and hydrogen atoms
  Fe         -0.78340703389741      0.71375414606640      0.03197342971753
  O          -1.33845125572327      2.77365864531835     -0.26572570189881
  H          -1.45246421720191      3.22610911411308     -1.11228547024121
  O           1.30012772120978      1.27349368680149      0.05370174256288
  H           2.05741525092232      0.67779162722163     -0.02362527221843
  O          -0.86022075125108      0.94273037124192      2.14244207813271
  H          -1.62532059323283      0.77991084313651      2.71090532863469
  O          -0.22425512598549     -1.34669685190788      0.32472626104619
  H          -0.05203871140416     -1.99609075464447     -0.37024860101232
  O          -2.87052976300559      0.15035902239740      0.01602963855154
  H          -3.22784754743126     -0.74398037157562     -0.06575616382180
  O          -0.70729120157850      0.48440325167439     -2.07834181182579
  H           0.05883325143677      0.64874527578477     -2.64502621335250
  H          -1.44482237958089      0.24699099166060     -2.65699140748546
  H           1.65521043043112      2.16902072656805      0.13264380670364
  H          -1.52676637628067      3.41934618986609      0.42856652429389
  H          -3.62662470285805      0.74770009749689      0.09190677578068
  H          -0.12150653115013      1.18227682309759      2.71869266125030
  H          -0.12155803341869     -1.80344306431721      1.17045780518228
O 1.013620107031747 0.7129515668421043 4.156791863684211
H 1.913620107031747 0.7129515668421043 4.156791863684211
H 0.7206087680203059 1.5639182848814894 4.156791863684211
O -2.9795732246137083 -1.2976251812684558 3.406791863684211
H -2.0795732246137084 -1.2976251812684558 3.406791863684211
H -3.2725845636251494 -0.44665846322907066 3.406791863684211
O -0.4652715044872328 4.354004417178515 2.6567918636842105
H 0.4347284955127672 4.354004417178515 2.6567918636842105
H -0.7582828434986738 5.2049711352179 2.6567918636842105
O 1.7041649259551996 -2.5334842318327975 1.9067918636842112
H 2.6041649259551995 -2.5334842318327975 1.9067918636842112
H 1.4111535869437586 -1.6825175137934123 1.9067918636842112
O -5.075318009799602 1.471880833999746 1.1567918636842112
H -4.175318009799602 1.471880833999746 1.1567918636842112
H -5.368329348811043 2.322847552039131 1.1567918636842112
O 2.9988754678166303 3.1198268173830623 0.40679186368421133
H 3.89887546781663 3.1198268173830623 0.40679186368421133
H 2.7058641288051892 3.9707935354224473 0.40679186368421133
O -1.9489727022268846 -3.617650681756311 -0.3432081363157887
H -1.0489727022268847 -3.617650681756311 -0.3432081363157887
H -2.2419840412383256 -2.7666839637169263 -0.3432081363157887
O -2.793037598933511 4.579658677312514 -1.0932081363157884
H -1.8930375989335109 4.579658677312514 -1.0932081363157884
H -3.086048937944952 5.430625395351899 -1.0932081363157884
O 3.0577278875693024 -0.6903395588095615 -1.8432081363157895
H 3.9577278875693023 -0.6903395588095615 -1.8432081363157895
H 2.7647165485578613 0.16062715922982362 -1.8432081363157895
O -4.163343978915509 -0.6816553747887804 -2.593208136315788
H -3.263343978915509 -0.6816553747887804 -2.593208136315788
H -4.45635531792695 0.16931134325060482 -2.593208136315788
O 0.4767482700129305 3.408842660818505 -3.343208136315789
H 1.3767482700129305 3.408842660818505 -3.343208136315789
H 0.18373693100148952 4.259809378857891 -3.343208136315789
O -0.2465735923892114 -1.0030523206278645 -4.093208136315789
H 0.6534264076107886 -1.0030523206278645 -4.093208136315789
H -0.5395849314006524 -0.15208560258847936 -4.093208136315789
