109
Molecule with added oxygen and hydrogen atoms
  Fe         -0.78340703389741      0.71375414606640      0.03197342971753
  O          -1.33845125572327      2.77365864531835     -0.26572570189881
  H          -1.45246421720191      3.22610911411308     -1.11228547024121
  O           1.30012772120978      1.27349368680149      0.05370174256288
  H           2.05741525092232      0.67779162722163     -0.02362527221843
  O          -0.86022075125108      0.94273037124192      2.14244207813271
  H          -1.62532059323283      0.77991084313651      2.71090532863469
  O          -0.22425512598549     -1.34669685190788      0.32472626104619
  H          -0.05203871140416     -1.99609075464447     -0.37024860101232
  O          -2.87052976300559      0.15035902239740      0.01602963855154
  H          -3.22784754743126     -0.74398037157562     -0.06575616382180
  O          -0.70729120157850      0.48440325167439     -2.07834181182579
  H           0.05883325143677      0.64874527578477     -2.64502621335250
  H          -1.44482237958089      0.24699099166060     -2.65699140748546
  H           1.65521043043112      2.16902072656805      0.13264380670364
  H          -1.52676637628067      3.41934618986609      0.42856652429389
  H          -3.62662470285805      0.74770009749689      0.09190677578068
  H          -0.12150653115013      1.18227682309759      2.71869266125030
  H          -0.12155803341869     -1.80344306431721      1.17045780518228
O 1.013620107031747 0.7129515668421043 4.156791863684211
H 1.913620107031747 0.7129515668421043 4.156791863684211
H 0.7206087680203059 1.5639182848814894 4.156791863684211
O -2.9795732246137083 -1.2976251812684558 3.406791863684211
H -2.0795732246137084 -1.2976251812684558 3.406791863684211
H -3.2725845636251494 -0.44665846322907066 3.406791863684211
O -0.4652715044872328 4.354004417178515 2.6567918636842105
H 0.4347284955127672 4.354004417178515 2.6567918636842105
H -0.7582828434986738 5.2049711352179 2.6567918636842105
O 1.7041649259551996 -2.5334842318327975 1.9067918636842112
H 2.6041649259551995 -2.5334842318327975 1.9067918636842112
H 1.4111535869437586 -1.6825175137934123 1.9067918636842112
O -5.075318009799602 1.471880833999746 1.1567918636842112
H -4.175318009799602 1.471880833999746 1.1567918636842112
H -5.368329348811043 2.322847552039131 1.1567918636842112
O 2.9988754678166303 3.1198268173830623 0.40679186368421133
H 3.89887546781663 3.1198268173830623 0.40679186368421133
H 2.7058641288051892 3.9707935354224473 0.40679186368421133
O -1.9489727022268846 -3.617650681756311 -0.3432081363157887
H -1.0489727022268847 -3.617650681756311 -0.3432081363157887
H -2.2419840412383256 -2.7666839637169263 -0.3432081363157887
O -2.793037598933511 4.579658677312514 -1.0932081363157884
H -1.8930375989335109 4.579658677312514 -1.0932081363157884
H -3.086048937944952 5.430625395351899 -1.0932081363157884
O 3.0577278875693024 -0.6903395588095615 -1.8432081363157895
H 3.9577278875693023 -0.6903395588095615 -1.8432081363157895
H 2.7647165485578613 0.16062715922982362 -1.8432081363157895
O -4.163343978915509 -0.6816553747887804 -2.593208136315788
H -3.263343978915509 -0.6816553747887804 -2.593208136315788
H -4.45635531792695 0.16931134325060482 -2.593208136315788
O 0.4767482700129305 3.408842660818505 -3.343208136315789
H 1.3767482700129305 3.408842660818505 -3.343208136315789
H 0.18373693100148952 4.259809378857891 -3.343208136315789
O -0.2465735923892114 -1.0030523206278645 -4.093208136315789
H 0.6534264076107886 -1.0030523206278645 -4.093208136315789
H -0.5395849314006524 -0.15208560258847936 -4.093208136315789
O 1.5383527712229608 0.8586864229059022 6.1706807525731
H 2.4383527712229607 0.8586864229059022 6.1706807525731
H 1.2453414322115197 1.7096531409452873 6.1706807525731
O -3.2473832650678207 -1.568357087319015 5.448458530350878
H -2.347383265067821 -1.568357087319015 5.448458530350878
H -3.5403946040792618 -0.7173903692796297 5.448458530350878
O -0.20496105503249884 5.33726927666933 4.726236308128656
H 0.6950389449675012 5.33726927666933 4.726236308128656
H -0.49797239404393984 6.188235994708715 4.726236308128656
O 2.5324337333453575 -3.224422267449896 4.004014085906434
H 3.4324337333453574 -3.224422267449896 4.004014085906434
H 2.2394223943339164 -2.3734555494105107 4.004014085906434
O -6.141124181933913 1.8391853833157517 3.2817918636842127
H -5.2411241819339125 1.8391853833157517 3.2817918636842127
H -6.434135520945354 2.690152101355137 3.2817918636842127
O 4.454692913574443 4.072802026413554 2.5595696414619895
H 5.354692913574444 4.072802026413554 2.5595696414619895
H 4.161681574563002 4.923768744452939 2.5595696414619895
O -2.2190292324497265 -5.171426656466288 1.8373474192397672
H -1.3190292324497266 -5.171426656466288 1.8373474192397672
H -2.5120405714611675 -4.320459938426903 1.8373474192397672
O -3.5520023310357423 6.546420109607387 1.115125197017545
H -2.6520023310357423 6.546420109607387 1.115125197017545
H -3.8450136700471833 7.397386827646772 1.115125197017545
O 5.498149567610773 -1.3676210446772767 0.39290297479532316
H 6.398149567610774 -1.3676210446772767 0.39290297479532316
H 5.205138228599332 -0.5166543266378916 0.39290297479532316
O -6.596976337453512 -1.6175999339029516 -0.329319247426899
H -5.696976337453512 -1.6175999339029516 -0.329319247426899
H -6.889987676464953 -0.7666332158635665 -0.329319247426899
O 2.118456243314188 6.663615659859797 -1.0515414696491212
H 3.018456243314188 6.663615659859797 -1.0515414696491212
H 1.825444904302747 7.514582377899182 -1.0515414696491212
O 1.270777387852037 -5.099300248737851 -1.7737636918713433
H 2.170777387852037 -5.099300248737851 -1.7737636918713433
H 0.9777660488405959 -4.248333530698466 -1.7737636918713433
O -5.779197193936929 3.8612906703835526 -2.4959859140935654
H -4.879197193936928 3.8612906703835526 -2.4959859140935654
H -6.07220853294837 4.7122573884229375 -2.4959859140935654
O 4.899859830274233 2.0673775444386155 -3.218208136315789
H 5.799859830274233 2.0673775444386155 -3.218208136315789
H 4.606848491262792 2.9183442624780005 -3.218208136315789
O -3.5570740741347104 -3.3502786173211985 -3.94043035853801
H -2.6570740741347105 -3.3502786173211985 -3.94043035853801
H -3.8500854131461515 -2.499311899281813 -3.94043035853801
O -1.1757673562421795 5.317204906712834 -4.662652580760233
H -0.2757673562421795 5.317204906712834 -4.662652580760233
H -1.4687786952536206 6.168171624752219 -4.662652580760233
O 2.149382259429865 -1.4568181532215592 -5.384874802982455
H 3.0493822594298647 -1.4568181532215592 -5.384874802982455
H 1.8563709204184238 -0.605851435182174 -5.384874802982455
O -2.732547178679433 0.770416583149713 -6.107097025204677
H -1.832547178679433 0.770416583149713 -6.107097025204677
H -3.025558517690874 1.6213833011890981 -6.107097025204677
