109
Molecule with added oxygen and hydrogen atoms
  Fe         -0.78481077866104      0.71241301911745      0.03381298552345
  O          -1.33102145572864      2.76531242358653     -0.26343022794811
  H          -1.44125108980413      3.20736343894317     -1.11471673693787
  O           1.29785047476213      1.26975950336350      0.04886810455222
  H           2.03898051368825      0.72309475914585      0.33834979566197
  O          -0.88758658173162      1.04388302564462      2.12489707240209
  H          -1.67062567596849      0.94886114962138      2.68221003665950
  O          -0.23141392064647     -1.33848545521543      0.32698138820679
  H          -0.04147167724539     -1.98671779172761     -0.36286262852405
  O          -2.86877810013840      0.15393969123717      0.01738899464310
  H          -3.60791317120121      0.70136030454208     -0.27569128456813
  O          -0.68305174002211      0.38369014839732     -2.06021498816851
  H           0.09991063863814      0.47964730381496     -2.61738729024493
  H          -1.39847638819561      0.06349565998013     -2.62442048664524
  H           1.66871768261484      2.11499553410026     -0.23387930388641
  H          -1.52548028249660      3.41707134267092      0.42181806178945
  H          -3.24136330767174     -0.69145678372312      0.29735023154591
  H          -0.17356995672568      1.36624499550033      2.68973239638943
  H          -0.13016275346619     -1.78839249899954      1.17523928954936
O 1.0136201070317459 0.7129515668421036 4.156791863684211
H 1.913620107031746 0.7129515668421036 4.156791863684211
H 0.7206087680203048 1.5639182848814888 4.156791863684211
O -2.979573224613709 -1.2976251812684565 3.4067918636842114
H -2.0795732246137093 -1.2976251812684565 3.4067918636842114
H -3.2725845636251503 -0.4466584632290713 3.4067918636842114
O -0.4652715044872338 4.354004417178514 2.656791863684211
H 0.4347284955127662 4.354004417178514 2.656791863684211
H -0.7582828434986748 5.204971135217899 2.656791863684211
O 1.7041649259551988 -2.533484231832798 1.9067918636842116
H 2.6041649259551987 -2.533484231832798 1.9067918636842116
H 1.4111535869437577 -1.6825175137934127 1.9067918636842116
O -5.075318009799604 1.4718808339997453 1.1567918636842116
H -4.175318009799604 1.4718808339997453 1.1567918636842116
H -5.368329348811045 2.3228475520391303 1.1567918636842116
O 2.9988754678166294 3.1198268173830614 0.40679186368421183
H 3.8988754678166293 3.1198268173830614 0.40679186368421183
H 2.7058641288051883 3.9707935354224464 0.40679186368421183
O -1.9489727022268857 -3.617650681756312 -0.3432081363157883
H -1.0489727022268855 -3.617650681756312 -0.3432081363157883
H -2.2419840412383265 -2.766683963716927 -0.3432081363157883
O -2.7930375989335117 4.579658677312514 -1.093208136315788
H -1.8930375989335118 4.579658677312514 -1.093208136315788
H -3.0860489379449527 5.430625395351899 -1.093208136315788
O 3.0577278875693015 -0.6903395588095622 -1.843208136315789
H 3.9577278875693014 -0.6903395588095622 -1.843208136315789
H 2.7647165485578604 0.16062715922982296 -1.843208136315789
O -4.16334397891551 -0.681655374788781 -2.5932081363157877
H -3.26334397891551 -0.681655374788781 -2.5932081363157877
H -4.456355317926951 0.16931134325060415 -2.5932081363157877
O 0.4767482700129295 3.4088426608185047 -3.3432081363157886
H 1.3767482700129294 3.4088426608185047 -3.3432081363157886
H 0.18373693100148852 4.25980937885789 -3.3432081363157886
O -0.2465735923892124 -1.0030523206278652 -4.093208136315789
H 0.6534264076107876 -1.0030523206278652 -4.093208136315789
H -0.5395849314006533 -0.15208560258848003 -4.093208136315789
O 1.5383527712229599 0.8586864229059019 6.170680752573101
H 2.43835277122296 0.8586864229059019 6.170680752573101
H 1.2453414322115188 1.709653140945287 6.170680752573101
O -3.2473832650678216 -1.5683570873190154 5.448458530350879
H -2.3473832650678217 -1.5683570873190154 5.448458530350879
H -3.5403946040792627 -0.7173903692796302 5.448458530350879
O -0.20496105503249984 5.33726927666933 4.726236308128657
H 0.6950389449675002 5.33726927666933 4.726236308128657
H -0.49797239404394084 6.188235994708715 4.726236308128657
O 2.5324337333453566 -3.2244222674498966 4.004014085906435
H 3.4324337333453565 -3.2244222674498966 4.004014085906435
H 2.2394223943339155 -2.3734555494105116 4.004014085906435
O -6.141124181933915 1.8391853833157512 3.2817918636842127
H -5.241124181933914 1.8391853833157512 3.2817918636842127
H -6.434135520945356 2.690152101355136 3.2817918636842127
O 4.454692913574442 4.072802026413554 2.5595696414619895
H 5.354692913574443 4.072802026413554 2.5595696414619895
H 4.161681574563001 4.923768744452939 2.5595696414619895
O -2.2190292324497274 -5.171426656466288 1.8373474192397674
H -1.3190292324497275 -5.171426656466288 1.8373474192397674
H -2.5120405714611684 -4.320459938426903 1.8373474192397674
O -3.552002331035743 6.546420109607387 1.1151251970175453
H -2.6520023310357432 6.546420109607387 1.1151251970175453
H -3.845013670047184 7.397386827646772 1.1151251970175453
O 5.498149567610772 -1.3676210446772772 0.3929029747953233
H 6.398149567610773 -1.3676210446772772 0.3929029747953233
H 5.205138228599331 -0.516654326637892 0.3929029747953233
O -6.596976337453514 -1.617599933902952 -0.32931924742689883
H -5.696976337453513 -1.617599933902952 -0.32931924742689883
H -6.889987676464955 -0.7666332158635669 -0.32931924742689883
O 2.118456243314187 6.663615659859797 -1.051541469649121
H 3.018456243314187 6.663615659859797 -1.051541469649121
H 1.825444904302746 7.514582377899182 -1.051541469649121
O 1.270777387852036 -5.099300248737851 -1.773763691871343
H 2.170777387852036 -5.099300248737851 -1.773763691871343
H 0.977766048840595 -4.248333530698466 -1.773763691871343
O -5.77919719393693 3.861290670383552 -2.4959859140935654
H -4.87919719393693 3.861290670383552 -2.4959859140935654
H -6.0722085329483715 4.7122573884229375 -2.4959859140935654
O 4.899859830274231 2.067377544438615 -3.218208136315789
H 5.799859830274231 2.067377544438615 -3.218208136315789
H 4.60684849126279 2.9183442624780005 -3.218208136315789
O -3.5570740741347113 -3.350278617321199 -3.94043035853801
H -2.6570740741347114 -3.350278617321199 -3.94043035853801
H -3.8500854131461524 -2.499311899281814 -3.94043035853801
O -1.1757673562421807 5.317204906712834 -4.662652580760232
H -0.27576735624218063 5.317204906712834 -4.662652580760232
H -1.4687786952536217 6.168171624752219 -4.662652580760232
O 2.149382259429864 -1.4568181532215596 -5.384874802982454
H 3.049382259429864 -1.4568181532215596 -5.384874802982454
H 1.8563709204184229 -0.6058514351821744 -5.384874802982454
O -2.7325471786794338 0.7704165831497126 -6.107097025204676
H -1.8325471786794338 0.7704165831497126 -6.107097025204676
H -3.025558517690875 1.621383301189098 -6.107097025204676
