55
Molecule with added oxygen and hydrogen atoms
  Fe         -0.78332295796823      0.71195844574750      0.03281778822236
  O          -1.33974661297750      2.76947358860782     -0.26209330556844
  H          -1.45118390081794      3.22309030048643     -1.10837080348086
  O           1.29624021335043      1.28304469378080      0.06242239875281
  H           2.05768623179507      0.69305534101954     -0.01730153626499
  O          -0.86990498434233      0.93465443851506      2.14152735439727
  H          -1.63801755013704      0.77125393670486      2.70569644590966
  O          -0.22417144534927     -1.34509050689826      0.32493595034014
  H          -0.04282829853544     -1.99081787771600     -0.37112324103270
  O          -2.86679206990509      0.14745029940332      0.00215443633535
  H          -3.21997523045279     -0.74842181952988     -0.08124239575165
  O          -0.69854631603235      0.48884639335602     -2.07662291249344
  H           0.07096519177112      0.64874793677608     -2.64003422183336
  H          -1.43439785224095      0.25164911207187     -2.65755171221521
  H           1.64269651568700      2.18163818164851      0.14441330633127
  H          -1.53012985676057      3.41297242813433      0.43367382261697
  H          -3.62482618645954      0.74213420853688      0.07966154490612
  H          -0.13201981403010      1.17165872340737      2.71989466899277
  H          -0.12324264659445     -1.80121805405229      1.17118782183590
O 1.0136201070317452 0.7129515668421034 4.156791863684209
H 1.9136201070317451 0.7129515668421034 4.156791863684209
H 0.7206087680203042 1.5639182848814885 4.156791863684209
O -2.9795732246137097 -1.2976251812684567 3.4067918636842087
H -2.0795732246137097 -1.2976251812684567 3.4067918636842087
H -3.2725845636251507 -0.44665846322907155 3.4067918636842087
O -0.46527150448723437 4.354004417178514 2.6567918636842083
H 0.43472849551276566 4.354004417178514 2.6567918636842083
H -0.7582828434986754 5.204971135217899 2.6567918636842083
O 1.7041649259551983 -2.5334842318327984 1.906791863684209
H 2.604164925955198 -2.5334842318327984 1.906791863684209
H 1.4111535869437573 -1.6825175137934132 1.906791863684209
O -5.075318009799604 1.4718808339997451 1.156791863684209
H -4.175318009799604 1.4718808339997451 1.156791863684209
H -5.368329348811045 2.3228475520391303 1.156791863684209
O 2.998875467816629 3.1198268173830614 0.4067918636842092
H 3.898875467816629 3.1198268173830614 0.4067918636842092
H 2.705864128805188 3.9707935354224464 0.4067918636842092
O -1.9489727022268863 -3.617650681756312 -0.34320813631579083
H -1.0489727022268864 -3.617650681756312 -0.34320813631579083
H -2.2419840412383274 -2.766683963716927 -0.34320813631579083
O -2.793037598933512 4.579658677312514 -1.0932081363157906
H -1.8930375989335122 4.579658677312514 -1.0932081363157906
H -3.086048937944953 5.430625395351899 -1.0932081363157906
O 3.057727887569301 -0.6903395588095624 -1.8432081363157917
H 3.957727887569301 -0.6903395588095624 -1.8432081363157917
H 2.76471654855786 0.16062715922982274 -1.8432081363157917
O -4.163343978915511 -0.6816553747887812 -2.5932081363157904
H -3.2633439789155108 -0.6816553747887812 -2.5932081363157904
H -4.456355317926952 0.16931134325060393 -2.5932081363157904
O 0.47674827001292897 3.4088426608185043 -3.3432081363157913
H 1.376748270012929 3.4088426608185043 -3.3432081363157913
H 0.18373693100148797 4.25980937885789 -3.3432081363157913
O -0.24657359238921295 -1.0030523206278654 -4.093208136315791
H 0.6534264076107871 -1.0030523206278654 -4.093208136315791
H -0.539584931400654 -0.15208560258848025 -4.093208136315791
