58
Molecule with added oxygen and hydrogen atoms
Fe        -0.00244       -0.00052        0.00015
O         -0.63995        1.85978        0.95245
H         -0.69256        2.02490        1.90128
O         -2.08215       -0.70170       -0.02465
H         -2.43350       -1.44764       -0.52492
O         -0.28602        0.93709       -1.91517
H          0.36491        1.46424       -2.39405
O          0.63640       -1.85995       -0.95405
H          0.90174       -2.67724       -0.51636
O          2.08267        0.69653        0.02475
H          2.43246        1.45598        0.50547
O          0.29530       -0.93041        1.91669
H         -0.34553       -1.45946        2.40696
H          1.11904       -0.95158        2.41860
H         -2.82352       -0.32783        0.46635
H         -0.93454        2.66686        0.51311
H          2.82625        0.30722       -0.44996
H         -1.10298        0.96715       -2.42756
H          0.70163       -2.01972       -1.90284
O 1.68607176609631 0.0001947368421052534 4.044200975473251
H 2.58607176609631 0.0001947368421052534 4.044200975473251
H 1.393060427084869 0.8511614548814904 4.044200975473251
O -2.0634380079203463 -1.8909132833292202 3.3701345848242
H -1.1634380079203464 -1.8909132833292202 3.3701345848242
H -2.3564493469317873 -1.039946565289835 3.3701345848242
O 0.302835999048265 3.440533745917447 2.6960681941751496
H 1.202835999048265 3.440533745917447 2.6960681941751496
H 0.009824660036824029 4.291500463956832 2.6960681941751496
O 2.365820283397239 -3.084417439472452 2.022001803526099
H 3.2658202833972387 -3.084417439472452 2.022001803526099
H 2.0728089443857978 -2.2334507214330666 2.022001803526099
O -4.104237103063748 0.7263367124228585 1.3479354128770493
H -3.204237103063748 0.7263367124228585 1.3479354128770493
H -4.397248442075189 1.5773034304622437 1.3479354128770493
O 3.6537500895888604 2.3238352755173337 0.6738690222279983
H 4.553750089588861 2.3238352755173337 0.6738690222279983
H 3.3607387505774193 3.174801993556719 0.6738690222279983
O -1.1365326997386913 -4.231019747926983 -0.00019736842105233572
H -0.2365326997386913 -4.231019747926983 -0.00019736842105233572
H -1.4295440387501324 -3.3800530298875984 -0.00019736842105233572
O -1.9944850643183485 3.842198403480379 -0.6742637590701029
H -1.0944850643183486 3.842198403480379 -0.6742637590701029
H -2.2874964033297895 4.6931651215197645 -0.6742637590701029
O 3.916814529343133 -1.4298888543738029 -1.348330149719154
H 4.816814529343133 -1.4298888543738029 -1.348330149719154
H 3.623803190331692 -0.5789221363344177 -1.348330149719154
O -3.591892671142854 -1.4828602396267916 -2.0223965403682045
H -2.691892671142854 -1.4828602396267916 -2.0223965403682045
H -3.884904010154295 -0.6318935215874064 -2.0223965403682045
O 1.4646844487466968 3.128204708929176 -2.696462931017255
H 2.3646844487466967 3.128204708929176 -2.696462931017255
H 1.1716731097352557 3.979171426968561 -2.696462931017255
O 0.8387832855201539 -2.671090751347881 -3.3705293216663055
H 1.738783285520154 -2.671090751347881 -3.3705293216663055
H 0.545771946508713 -1.820124033308496 -3.3705293216663055
O -1.4571187037949564 0.8451497331556446 -4.044595712315356
H -0.5571187037949564 0.8451497331556446 -4.044595712315356
H -1.7501300428063975 1.6961164511950297 -4.044595712315356
