58
Molecule with added oxygen and hydrogen atoms
Fe         0.00000        0.00000       -0.00000
O         -0.00429        2.11036       -0.26062
H         -0.40165        2.58139       -1.01092
O          2.03228       -0.12581       -0.98560
H          2.45640       -0.96679       -1.22109
O          1.13092        0.23446        1.79540
H          0.82486        0.39489        2.70278
O          0.00429       -2.11036        0.26062
H         -0.44932       -2.75209       -0.30953
O         -2.03228        0.12581        0.98560
H         -2.45641        0.96680        1.22108
O         -1.13092       -0.23446       -1.79540
H         -0.82486       -0.39489       -2.70278
H         -2.10227       -0.23759       -1.78707
H          2.40673        0.55947       -1.56243
H          0.44932        2.75209        0.30953
H         -2.40673       -0.55946        1.56244
H          2.10227        0.23759        1.78707
H          0.40165       -2.58139        1.01092
O 1.7013265467427643 1.0526315789308914e-06 4.08318497534053
H 2.601326546742764 1.0526315789308914e-06 4.08318497534053
H 1.4083152077313232 0.8509677706709641 4.08318497534053
O -2.0841418152622295 -1.9092430915232117 3.4026541461171083
H -1.1841418152622296 -1.9092430915232117 3.4026541461171083
H -2.3771531542736706 -1.0582763734838265 3.4026541461171083
O 0.304825257523609 3.473333636980368 2.722123316893687
H 1.2048252575236091 3.473333636980368 2.722123316893687
H 0.011813918512168009 4.324300355019753 2.722123316893687
O 2.3875939954087184 -3.1141932037512965 2.041592487670265
H 3.2875939954087183 -3.1141932037512965 2.041592487670265
H 2.0945826563972774 -2.263226485711911 2.041592487670265
O -4.144512603307399 0.7331068826078827 1.3610616584468442
H -3.2445126033073994 0.7331068826078827 1.3610616584468442
H -4.43752394231884 1.584073600647268 1.3610616584468442
O 3.6878753195453458 2.3459257931889406 0.680530829223422
H 4.587875319545346 2.3459257931889406 0.680530829223422
H 3.3948639805339047 3.1968925112283255 0.680530829223422
O -1.148347290065572 -4.271791669698711 2.7085821806210614e-16
H -0.248347290065572 -4.271791669698711 2.7085821806210614e-16
H -1.441358629077013 -3.420824951659326 2.7085821806210614e-16
O -2.0145275984167936 3.878850343157994 -0.6805308292234215
H -1.1145275984167937 3.878850343157994 -0.6805308292234215
H -2.3075389374282347 4.729817061197379 -0.6805308292234215
O 3.953462602650784 -1.4437973412504725 -1.3610616584468438
H 4.853462602650784 -1.4437973412504725 -1.3610616584468438
H 3.660451263639343 -0.5928306232110874 -1.3610616584468438
O -3.627254680438107 -1.497276733238284 -2.041592487670265
H -2.727254680438107 -1.497276733238284 -2.041592487670265
H -3.920266019449548 -0.6463100151988987 -2.041592487670265
O 1.4778160784186998 3.158009298783474 -2.722123316893687
H 2.3778160784186997 3.158009298783474 -2.722123316893687
H 1.1848047394072587 4.008976016822859 -2.722123316893687
O 0.8459123912873385 -2.6969026256841393 -3.4026541461171083
H 1.7459123912873387 -2.6969026256841393 -3.4026541461171083
H 0.5529010522758975 -1.8459359076447541 -3.4026541461171083
O -1.4720077813826975 0.8530593452191209 -4.08318497534053
H -0.5720077813826975 0.8530593452191209 -4.08318497534053
H -1.7650191203941386 1.704026063258506 -4.08318497534053
