55
Molecule with added oxygen and hydrogen atoms
Fe         0.00000        0.00001       -0.00000
O         -1.88082       -0.03020        1.02376
H         -2.75681       -0.04546        0.62127
O         -0.03526        2.14699       -0.00105
H          0.53153        2.73008       -0.51901
O          1.04920        0.01804        1.83429
H          1.37141       -0.75356        2.31507
O          1.88083        0.03022       -1.02374
H          2.00685        0.03151       -1.97962
O          0.03524       -2.14698        0.00104
H          0.62108       -2.71151       -0.51628
O         -1.04920       -0.01810       -1.83429
H         -1.37143        0.75346       -2.31513
H         -1.34544       -0.80022       -2.31477
H         -0.62105        2.71151        0.51634
H         -2.00682       -0.03155        1.97965
H         -0.53162       -2.73006        0.51893
H          1.34547        0.80011        2.31483
H          2.75681        0.04563       -0.62123
O 1.7302372654422475 -4.210526315791128e-06 3.9685802848783367
H 2.6302372654422475 -4.210526315791128e-06 3.9685802848783367
H 1.4372259264308065 0.8509625075130693 3.9685802848783367
O -2.111531393852683 -1.934338488004288 3.247020807244955
H -1.2115313938526833 -1.934338488004288 3.247020807244955
H -2.4045427328641242 -1.0833717699649028 3.247020807244955
O 0.30742625386354744 3.5029773797727195 2.5254613296115727
H 1.2074262538635474 3.5029773797727195 2.5254613296115727
H 0.014414914852106442 4.3539440978121045 2.5254613296115727
O 2.3945961438753742 -3.1233329026092123 1.8039018519781913
H 3.294596143875374 -3.1233329026092123 1.8039018519781913
H 2.101584804863933 -2.272366184569827 1.8039018519781913
O -4.127804077121507 0.7301459302349551 1.0823423743448095
H -3.227804077121507 0.7301459302349551 1.0823423743448095
H -4.420815416132948 1.5811126482743403 1.0823423743448095
O 3.6402103602379956 2.3156006541524157 0.36078289671142805
H 4.540210360237996 2.3156006541524157 0.36078289671142805
H 3.3471990212265545 3.1665673721918006 0.36078289671142805
O -1.1200119610765138 -4.166387005641811 -0.3607765809219538
H -0.22001196107651377 -4.166387005641811 -0.3607765809219538
H -1.4130233000879548 -3.315420287602426 -0.3607765809219538
O -1.932069329018257 3.720074673196767 -1.0823360585553354
H -1.032069329018257 3.720074673196767 -1.0823360585553354
H -2.225080668029698 4.571041391236152 -1.0823360585553354
O 3.696831055243594 -1.3500815593166842 -1.8038955361887183
H 4.5968310552435945 -1.3500815593166842 -1.8038955361887183
H 3.403819716232153 -0.499114841277299 -1.8038955361887183
O -3.250412736668259 -1.3417266856024082 -2.5254550138220986
H -2.3504127366682592 -1.3417266856024082 -2.5254550138220986
H -3.5434240756797 -0.490759967563023 -2.5254550138220986
O 1.2137239824084194 2.593656815508482 -3.2470144914554813
H 2.1137239824084193 2.593656815508482 -3.2470144914554813
H 0.9207126433969783 3.444623533547867 -3.2470144914554813
O 0.5178309888141602 -1.6509360354058935 -3.9685739690888635
H 1.4178309888141603 -1.6509360354058935 -3.9685739690888635
H 0.22481964980271923 -0.7999693173665083 -3.9685739690888635
