118
Molecule with added oxygen and hydrogen atoms
Fe         0.00000        0.00000       -0.00000
O         -0.00429        2.11036       -0.26062
H         -0.40165        2.58139       -1.01092
O          2.03228       -0.12581       -0.98560
H          2.45640       -0.96679       -1.22109
O          1.13092        0.23446        1.79540
H          0.82486        0.39489        2.70278
O          0.00429       -2.11036        0.26062
H         -0.44932       -2.75209       -0.30953
O         -2.03228        0.12581        0.98560
H         -2.45641        0.96680        1.22108
O         -1.13092       -0.23446       -1.79540
H         -0.82486       -0.39489       -2.70278
H         -2.10227       -0.23759       -1.78707
H          2.40673        0.55947       -1.56243
H          0.44932        2.75209        0.30953
H         -2.40673       -0.55946        1.56244
H          2.10227        0.23759        1.78707
H          0.40165       -2.58139        1.01092
O 1.7013265467427643 1.0526315789308914e-06 4.08318497534053
H 2.601326546742764 1.0526315789308914e-06 4.08318497534053
H 1.4083152077313232 0.8509677706709641 4.08318497534053
O -2.0841418152622295 -1.9092430915232117 3.4026541461171083
H -1.1841418152622296 -1.9092430915232117 3.4026541461171083
H -2.3771531542736706 -1.0582763734838265 3.4026541461171083
O 0.304825257523609 3.473333636980368 2.722123316893687
H 1.2048252575236091 3.473333636980368 2.722123316893687
H 0.011813918512168009 4.324300355019753 2.722123316893687
O 2.3875939954087184 -3.1141932037512965 2.041592487670265
H 3.2875939954087183 -3.1141932037512965 2.041592487670265
H 2.0945826563972774 -2.263226485711911 2.041592487670265
O -4.144512603307399 0.7331068826078827 1.3610616584468442
H -3.2445126033073994 0.7331068826078827 1.3610616584468442
H -4.43752394231884 1.584073600647268 1.3610616584468442
O 3.6878753195453458 2.3459257931889406 0.680530829223422
H 4.587875319545346 2.3459257931889406 0.680530829223422
H 3.3948639805339047 3.1968925112283255 0.680530829223422
O -1.148347290065572 -4.271791669698711 2.7085821806210614e-16
H -0.248347290065572 -4.271791669698711 2.7085821806210614e-16
H -1.441358629077013 -3.420824951659326 2.7085821806210614e-16
O -2.0145275984167936 3.878850343157994 -0.6805308292234215
H -1.1145275984167937 3.878850343157994 -0.6805308292234215
H -2.3075389374282347 4.729817061197379 -0.6805308292234215
O 3.953462602650784 -1.4437973412504725 -1.3610616584468438
H 4.853462602650784 -1.4437973412504725 -1.3610616584468438
H 3.660451263639343 -0.5928306232110874 -1.3610616584468438
O -3.627254680438107 -1.497276733238284 -2.041592487670265
H -2.727254680438107 -1.497276733238284 -2.041592487670265
H -3.920266019449548 -0.6463100151988987 -2.041592487670265
O 1.4778160784186998 3.158009298783474 -2.722123316893687
H 2.3778160784186997 3.158009298783474 -2.722123316893687
H 1.1848047394072587 4.008976016822859 -2.722123316893687
O 0.8459123912873385 -2.6969026256841393 -3.4026541461171083
H 1.7459123912873387 -2.6969026256841393 -3.4026541461171083
H 0.5529010522758975 -1.8459359076447541 -3.4026541461171083
O -1.4720077813826975 0.8530593452191209 -4.08318497534053
H -0.5720077813826975 0.8530593452191209 -4.08318497534053
H -1.7650191203941386 1.704026063258506 -4.08318497534053
O 2.227151794779774 0.16534193787554727 6.382813410696158
H 3.127151794779774 0.16534193787554727 6.382813410696158
H 1.934140455768333 1.0163086559149324 6.382813410696158
O -2.4805631815730966 -2.2254355103590266 5.710938314833404
H -1.5805631815730967 -2.2254355103590266 5.710938314833404
H -2.7735745205845377 -1.3744687923196415 5.710938314833404
O 0.5177455517722305 4.592361944861861 5.039063218970651
H 1.4177455517722306 4.592361944861861 5.039063218970651
H 0.22473421276078948 5.443328662901246 5.039063218970651
O 3.235794901850496 -3.8866316715507874 4.367188123107898
H 4.135794901850496 -3.8866316715507874 4.367188123107898
H 2.942783562839055 -3.035664953511402 4.367188123107898
O -5.396264182986204 1.142722727485124 3.6953130272451453
H -4.496264182986204 1.142722727485124 3.6953130272451453
H -5.689275521997645 1.993689445524509 3.6953130272451453
O 5.191785012399734 3.3857298226401764 3.0234379313823907
H 6.091785012399734 3.3857298226401764 3.0234379313823907
H 4.898773673388293 4.236696540679562 3.0234379313823907
O -1.5046719638446266 -5.912663953850269 2.3515628355196374
H -0.6046719638446266 -5.912663953850269 2.3515628355196374
H -1.7976833028560677 -5.061697235810884 2.3515628355196374
O -2.869163296164853 5.938551294587763 1.6796877396568837
H -1.969163296164853 5.938551294587763 1.6796877396568837
H -3.162174635176294 6.789518012627148 1.6796877396568837
O 6.368884920304701 -2.1133727776227857 1.00781264379413
H 7.268884920304702 -2.1133727776227857 1.00781264379413
H 6.07587358129326 -1.2624060595834006 1.00781264379413
O -6.073457193566728 -2.395034063923091 0.3359375479313776
H -5.173457193566728 -2.395034063923091 0.3359375479313776
H -6.366468532578169 -1.544067345883706 0.3359375479313776
O 2.973376293729996 6.24313343593218 -0.33593754793137653
H 3.873376293729996 6.24313343593218 -0.33593754793137653
H 2.680364954718555 7.094100153971565 -0.33593754793137653
O 2.1172858780141417 -6.172917448263582 -1.0078126437941293
H 3.0172858780141416 -6.172917448263582 -1.0078126437941293
H 1.8242745390027006 -5.321950730224197 -1.0078126437941293
O -5.499324809905014 3.427200141804514 -1.679687739656883
H -4.5993248099050135 3.427200141804514 -1.679687739656883
H -5.792336148916455 4.278166859843899 -1.679687739656883
O 6.276212688891693 1.516740491557874 -2.3515628355196383
H 7.1762126888916935 1.516740491557874 -2.3515628355196383
H 5.983201349880252 2.367707209597259 -2.3515628355196383
O -3.3215750635909047 -4.743062469850951 -3.0234379313823916
H -2.421575063590905 -4.743062469850951 -3.0234379313823916
H -3.6145864026023458 -3.892095751811566 -3.0234379313823916
O -0.5918848398600478 5.730077359030242 -3.6953130272451435
H 0.3081151601399522 5.730077359030242 -3.6953130272451435
H -0.8848961788714889 6.581044077069627 -3.6953130272451435
O 4.033373963357445 -3.125081065214481 -4.367188123107898
H 4.933373963357445 -3.125081065214481 -4.367188123107898
H 3.7403626243460035 -2.2741143471750958 -4.367188123107898
O -4.3110185922475415 -0.018275970814270293 -5.039063218970651
H -3.4110185922475416 -0.018275970814270293 -5.039063218970651
H -4.6040299312589825 0.8326907472251148 -5.039063218970651
O 2.637997799205436 2.6619084616808912 -5.710938314833406
H 3.537997799205436 2.6619084616808912 -5.710938314833406
H 2.344986460193995 3.512875179720276 -5.710938314833406
O 0.032316091847783016 -1.930348058321632 -6.382813410696158
H 0.9323160918477831 -1.930348058321632 -6.382813410696158
H -0.260695247163658 -1.0793813402822467 -6.382813410696158
