118
Molecule with added oxygen and hydrogen atoms
Fe         0.00063       -0.00122        0.00002
O         -1.93448       -0.91050        0.49260
H         -2.56723       -1.31399       -0.11445
O         -0.97189        1.95719       -0.12168
H         -0.61027        2.76367       -0.51066
O          0.39618        0.33023        2.08540
H          0.90463       -0.24382        2.67296
O          1.92807        0.92372       -0.49418
H          2.28337        1.05513       -1.38221
O          0.97384       -1.95917        0.12332
H          1.85393       -2.18792       -0.20299
O         -0.39561       -0.33371       -2.08527
H         -0.90722        0.24017       -2.67035
H         -0.21226       -1.14131       -2.58287
H         -1.85813        2.18104        0.18954
H         -2.28716       -1.04475        1.38093
H          0.61709       -2.76356        0.52117
H          0.21520        1.14010        2.58013
H          2.58288        1.28495        0.11686
O 1.6880060806644108 -0.0012500000000000202 4.049662067278798
H 2.5880060806644107 -0.0012500000000000202 4.049662067278798
H 1.3949947416529698 0.8497167180393852 4.049662067278798
O -2.0664680374407176 -1.8948618437339837 3.3747032139604016
H -1.1664680374407177 -1.8948618437339837 3.3747032139604016
H -2.3594793764521587 -1.0438951256945985 3.3747032139604016
O 0.3029389119886934 3.4436440116360494 2.699744360642006
H 1.2029389119886935 3.4436440116360494 2.699744360642006
H 0.009927572977252386 4.294610729675434 2.699744360642006
O 2.3686545837599886 -3.0899461971987896 2.0247855073236094
H 3.2686545837599885 -3.0899461971987896 2.0247855073236094
H 2.0756432447485476 -2.238979479159404 2.0247855073236094
O -4.109969146856477 0.7258533862293791 1.3498266540052144
H -3.209969146856477 0.7258533862293791 1.3498266540052144
H -4.402980485867918 1.5768201042687644 1.3498266540052144
O 3.6582896066612824 2.325467034501921 0.6748678006868175
H 4.558289606661282 2.325467034501921 0.6748678006868175
H 3.3652782676498414 3.176433752541306 0.6748678006868175
O -1.1383355083249735 -4.238066605014269 -9.105263157868872e-05
H -0.23833550832497352 -4.238066605014269 -9.105263157868872e-05
H -1.4313468473364146 -3.387099886974884 -9.105263157868872e-05
O -1.9974238002674043 3.8458404724715423 -0.6750499059499749
H -1.0974238002674044 3.8458404724715423 -0.6750499059499749
H -2.2904351392788453 4.696807190510928 -0.6750499059499749
O 3.9217023432530325 -1.4332270192771632 -1.3500087592683716
H 4.821702343253032 -1.4332270192771632 -1.3500087592683716
H 3.6286910042415914 -0.582260301237778 -1.3500087592683716
O -3.5969463718440413 -1.4862685385474206 -2.0249676125867677
H -2.6969463718440414 -1.4862685385474206 -2.0249676125867677
H -3.8899577108554824 -0.6353018205080354 -2.0249676125867677
O 1.466325646911218 3.130901451573595 -2.699926465905164
H 2.366325646911218 3.130901451573595 -2.699926465905164
H 1.173314307899777 3.98186816961298 -2.699926465905164
O 0.8395957916884136 -2.6760722652945073 -3.3748853192235595
H 1.7395957916884135 -2.6760722652945073 -3.3748853192235595
H 0.5465844526769725 -1.825105547255122 -3.3748853192235595
O -1.4593459676647298 0.8448237151844813 -4.049844172541957
H -0.5593459676647298 0.8448237151844813 -4.049844172541957
H -1.7523573066761708 1.6957904332238665 -4.049844172541957
O 2.2164634244232313 0.16429879555352603 6.348179359243209
H 3.116463424423231 0.16429879555352603 6.348179359243209
H 1.9234520854117902 1.0152655135929112 6.348179359243209
O -2.4657739792017592 -2.2135400600475656 5.6799403685195475
H -1.5657739792017593 -2.2135400600475656 5.6799403685195475
H -2.7587853182132003 -1.3625733420081805 5.6799403685195475
O 0.5163082771375993 4.567360316360807 5.011701377795886
H 1.4163082771375994 4.567360316360807 5.011701377795886
H 0.2232969381261583 5.418327034400192 5.011701377795886
O 3.2196478794205055 -3.8657460325332065 4.343462387072224
H 4.119647879420506 -3.8657460325332065 4.343462387072224
H 2.9266365404090644 -3.014779314493821 4.343462387072224
O -5.36569556646397 1.1363901208953653 3.6752233963485623
H -4.465695566463969 1.1363901208953653 3.6752233963485623
H -5.658706905475411 1.9873568389347505 3.6752233963485623
O 5.165052412774257 3.3672583383394663 3.0069844056248995
H 6.065052412774257 3.3672583383394663 3.0069844056248995
H 4.872041073762816 4.218225056378851 3.0069844056248995
O -1.4951641643617535 -5.880813678043801 2.3387454149012377
H -0.5951641643617535 -5.880813678043801 2.3387454149012377
H -1.7881755033731945 -5.0298469600044164 2.3387454149012377
O -2.852271037909439 5.906264255386312 1.6705064241775758
H -1.9522710379094392 5.906264255386312 1.6705064241775758
H -3.14528237692088 6.757230973425697 1.6705064241775758
O 6.335782001179791 -2.1020837969973005 1.0022674334539137
H 7.235782001179792 -2.1020837969973005 1.0022674334539137
H 6.04277066216835 -1.2511170789579154 1.0022674334539137
O -6.039223692006945 -2.3822207671607134 0.33402844273025245
H -5.1392236920069445 -2.3822207671607134 0.33402844273025245
H -6.332235031018386 -1.5312540491213282 0.33402844273025245
O 2.9586494484362857 6.209198035753759 -0.33421054799341016
H 3.8586494484362857 6.209198035753759 -0.33421054799341016
H 2.6656381094248447 7.060164753793144 -0.33421054799341016
O 2.107192088446532 -6.139658712649138 -1.002449538717071
H 3.0071920884465317 -6.139658712649138 -1.002449538717071
H 1.8141807494350908 -5.288691994609753 -1.002449538717071
O -5.468198441983025 3.4085042252520927 -1.6706885294407334
H -4.568198441983025 3.4085042252520927 -1.6706885294407334
H -5.7612097809944665 4.259470943291478 -1.6706885294407334
O 6.24361130045153 1.5083837469662296 -2.3389275201643973
H 7.14361130045153 1.5083837469662296 -2.3389275201643973
H 5.950599961440089 2.3593504650056145 -2.3389275201643973
O -3.3022344086578146 -4.717541932998712 -3.007166510888059
H -2.4022344086578147 -4.717541932998712 -3.007166510888059
H -3.5952457476692556 -3.866575214959327 -3.007166510888059
O -0.5873169316945556 5.6989185550515495 -3.6754055016117197
H 0.31268306830544446 5.6989185550515495 -3.6754055016117197
H -0.8803282707059965 6.5498852730909345 -3.6754055016117197
O 4.012910541432614 -3.1083168441366764 -4.3436444923353825
H 4.912910541432614 -3.1083168441366764 -4.3436444923353825
H 3.719899202421173 -2.2573501260972915 -4.3436444923353825
O -4.286323190991001 -0.018325395664803845 -5.011883483059044
H -3.386323190991001 -0.018325395664803845 -5.011883483059044
H -4.579334530002442 0.8326413223745813 -5.011883483059044
O 2.6250859809531963 2.6473542092980997 -5.680122473782707
H 3.5250859809531963 2.6473542092980997 -5.680122473782707
H 2.3320746419417553 3.4983209273374847 -5.680122473782707
O 0.033505901569703525 -1.920049584899837 -6.348361464506368
H 0.9335059015697036 -1.920049584899837 -6.348361464506368
H -0.2595054374417375 -1.0690828668604517 -6.348361464506368
