112
Molecule with added oxygen and hydrogen atoms
Fe         0.00000        0.00001       -0.00000
O         -1.88082       -0.03020        1.02376
H         -2.75681       -0.04546        0.62127
O         -0.03526        2.14699       -0.00105
H          0.53153        2.73008       -0.51901
O          1.04920        0.01804        1.83429
H          1.37141       -0.75356        2.31507
O          1.88083        0.03022       -1.02374
H          2.00685        0.03151       -1.97962
O          0.03524       -2.14698        0.00104
H          0.62108       -2.71151       -0.51628
O         -1.04920       -0.01810       -1.83429
H         -1.37143        0.75346       -2.31513
H         -1.34544       -0.80022       -2.31477
H         -0.62105        2.71151        0.51634
H         -2.00682       -0.03155        1.97965
H         -0.53162       -2.73006        0.51893
H          1.34547        0.80011        2.31483
H          2.75681        0.04563       -0.62123
O 1.7302372654422475 -4.210526315791128e-06 3.9685802848783367
H 2.6302372654422475 -4.210526315791128e-06 3.9685802848783367
H 1.4372259264308065 0.8509625075130693 3.9685802848783367
O -2.111531393852683 -1.934338488004288 3.247020807244955
H -1.2115313938526833 -1.934338488004288 3.247020807244955
H -2.4045427328641242 -1.0833717699649028 3.247020807244955
O 0.30742625386354744 3.5029773797727195 2.5254613296115727
H 1.2074262538635474 3.5029773797727195 2.5254613296115727
H 0.014414914852106442 4.3539440978121045 2.5254613296115727
O 2.3945961438753742 -3.1233329026092123 1.8039018519781913
H 3.294596143875374 -3.1233329026092123 1.8039018519781913
H 2.101584804863933 -2.272366184569827 1.8039018519781913
O -4.127804077121507 0.7301459302349551 1.0823423743448095
H -3.227804077121507 0.7301459302349551 1.0823423743448095
H -4.420815416132948 1.5811126482743403 1.0823423743448095
O 3.6402103602379956 2.3156006541524157 0.36078289671142805
H 4.540210360237996 2.3156006541524157 0.36078289671142805
H 3.3471990212265545 3.1665673721918006 0.36078289671142805
O -1.1200119610765138 -4.166387005641811 -0.3607765809219538
H -0.22001196107651377 -4.166387005641811 -0.3607765809219538
H -1.4130233000879548 -3.315420287602426 -0.3607765809219538
O -1.932069329018257 3.720074673196767 -1.0823360585553354
H -1.032069329018257 3.720074673196767 -1.0823360585553354
H -2.225080668029698 4.571041391236152 -1.0823360585553354
O 3.696831055243594 -1.3500815593166842 -1.8038955361887183
H 4.5968310552435945 -1.3500815593166842 -1.8038955361887183
H 3.403819716232153 -0.499114841277299 -1.8038955361887183
O -3.250412736668259 -1.3417266856024082 -2.5254550138220986
H -2.3504127366682592 -1.3417266856024082 -2.5254550138220986
H -3.5434240756797 -0.490759967563023 -2.5254550138220986
O 1.2137239824084194 2.593656815508482 -3.2470144914554813
H 2.1137239824084193 2.593656815508482 -3.2470144914554813
H 0.9207126433969783 3.444623533547867 -3.2470144914554813
O 0.5178309888141602 -1.6509360354058935 -3.9685739690888635
H 1.4178309888141603 -1.6509360354058935 -3.9685739690888635
H 0.22481964980271923 -0.7999693173665083 -3.9685739690888635
O 2.3145245598277593 0.14724484206816 6.30241131279478
H 3.214524559827759 0.14724484206816 6.30241131279478
H 2.0215132208163182 0.9982115601075452 6.30241131279478
O -2.460790883909019 -2.2762817151171046 5.602143740028107
H -1.5607908839090192 -2.2762817151171046 5.602143740028107
H -2.75380222292046 -1.4253149970777195 5.602143740028107
O 0.5779454446079746 4.627573826959667 4.901876167261436
H 1.4779454446079745 4.627573826959667 4.901876167261436
H 0.2849341055965336 5.478540544999052 4.901876167261436
O 3.322945428438261 -3.9459833580858614 4.201608594494765
H 4.222945428438261 -3.9459833580858614 4.201608594494765
H 3.02993408942682 -3.0950166400464765 4.201608594494765
O -5.385371088242712 1.1325197510343026 3.501341021728093
H -4.485371088242712 1.1325197510343026 3.501341021728093
H -5.678382427254153 1.9834864690736878 3.501341021728093
O 5.276044680158504 3.385913658450318 2.801073448961422
H 6.176044680158505 3.385913658450318 2.801073448961422
H 4.983033341147063 4.236880376489704 2.801073448961422
O -1.4539113551200098 -5.948470967294242 2.100805876194751
H -0.5539113551200098 -5.948470967294242 2.100805876194751
H -1.7469226941314508 -5.0975042492548575 2.100805876194751
O -2.8127402652193583 5.918718169156619 1.4005383034280792
H -1.9127402652193584 5.918718169156619 1.4005383034280792
H -3.1057516042307993 6.769684887196004 1.4005383034280792
O 6.398901966494964 -2.122155723206019 0.700270730661409
H 7.298901966494964 -2.122155723206019 0.700270730661409
H 6.1058906274835225 -1.2711890051666337 0.700270730661409
O -5.96450369702192 -2.3910751682767355 3.1578947370942084e-06
H -5.0645036970219195 -2.3910751682767355 3.1578947370942084e-06
H -6.257515036033361 -1.5401084502373503 3.1578947370942084e-06
O 2.9887322805904586 6.1392051786875905 -0.7002644148719349
H 3.8887322805904585 6.1392051786875905 -0.7002644148719349
H 2.6957209415790175 6.9901718967269755 -0.7002644148719349
O 2.1311204659373755 -6.0581104084959 -1.4005319876386053
H 3.0311204659373754 -6.0581104084959 -1.4005319876386053
H 1.8381091269259344 -5.207143690456515 -1.4005319876386053
O -5.276578808612906 3.3121929732012765 -2.100799560405278
H -4.376578808612906 3.3121929732012765 -2.100799560405278
H -5.569590147624347 4.163159691240661 -2.100799560405278
O 6.078099664415058 1.4428825783565506 -2.801067133171949
H 6.978099664415058 1.4428825783565506 -2.801067133171949
H 5.785088325403617 2.293849296395936 -2.801067133171949
O -3.068524292213248 -4.480194365658798 -3.5013347059386213
H -2.168524292213248 -4.480194365658798 -3.5013347059386213
H -3.361535631224689 -3.6292276476194134 -3.5013347059386213
O -0.47808762051595705 5.262269811025058 -4.201602278705291
H 0.421912379484043 5.262269811025058 -4.201602278705291
H -0.771098959527398 6.113236529064443 -4.201602278705291
O 3.6237909115683085 -2.751187634079396 -4.901869851471963
H 4.523790911568309 -2.751187634079396 -4.901869851471963
H 3.3307795725568674 -1.9002209160400108 -4.901869851471963
O -3.3999959965781525 -0.0009954064227131743 -5.602137424238633
H -2.4999959965781526 -0.0009954064227131743 -5.602137424238633
H -3.6930073355895936 0.849971311616672 -5.602137424238633
O 1.6943950728739736 1.6495494103150328 -6.302404997005306
H 2.5943950728739735 1.6495494103150328 -6.302404997005306
H 1.4013837338625326 2.500516128354418 -6.302404997005306
