109
Molecule with added oxygen and hydrogen atoms
Fe        -0.00005        0.00001        0.00003
O          1.34995        0.02721        1.57692
H          1.42443        0.71035        2.26725
O          1.35503        1.04257       -1.17770
H          1.22657        1.32476       -2.10109
O          0.80775       -1.79501       -0.65994
H          0.52408       -2.69039       -0.40184
O         -1.35015       -0.02808       -1.57673
H         -2.03249        0.63958       -1.77018
O         -1.35505       -1.04211        1.17810
H         -1.22677       -1.32333        2.10180
O         -0.80741        1.79541        0.65929
H         -0.52319        2.69052        0.40088
H         -1.54369        1.90641        1.28727
H          2.24271        1.34474       -0.91407
H          2.03158       -0.64116        1.77044
H         -2.24255       -1.34483        0.91455
H          1.54381       -1.90534       -1.28830
H         -1.42420       -0.71144       -2.26689
O 1.798455768610691 -6.842105263208562e-06 4.124988947368421
H 2.698455768610691 -6.842105263208562e-06 4.124988947368421
H 1.50544442959925 0.8509598759341219 4.124988947368421
O -2.194737563034764 -2.0105835902158233 3.374988947368421
H -1.2947375630347642 -2.0105835902158233 3.374988947368421
H -2.487748902046205 -1.1596168721764382 3.374988947368421
O 0.31956415709171143 3.641046008231147 2.6249889473684207
H 1.2195641570917115 3.641046008231147 2.6249889473684207
H 0.026552818080270435 4.4920127262705325 2.6249889473684207
O 2.489000587534144 -3.246442640780165 1.874988947368421
H 3.389000587534144 -3.246442640780165 1.874988947368421
H 2.195989248522703 -2.39547592274078 1.874988947368421
O -4.290482348220658 0.7589224250523785 1.124988947368421
H -3.3904823482206585 0.7589224250523785 1.124988947368421
H -4.5834936872320995 1.6098891430917637 1.124988947368421
O 3.7837111293955745 2.406868408435695 0.3749889473684213
H 4.683711129395575 2.406868408435695 0.3749889473684213
H 3.4906997903841335 3.2578351264750802 0.3749889473684213
O -1.1641370406479405 -4.330609090703678 -0.37501105263157875
H -0.2641370406479405 -4.330609090703678 -0.37501105263157875
H -1.4571483796593816 -3.4796423726642933 -0.37501105263157875
O -2.0082019373545665 3.866700268365147 -1.1250110526315786
H -1.1082019373545666 3.866700268365147 -1.1250110526315786
H -2.3012132763660076 4.717666986404532 -1.1250110526315786
O 3.8425635491482466 -1.403297967756929 -1.8750110526315797
H 4.7425635491482465 -1.403297967756929 -1.8750110526315797
H 3.5495522101368056 -0.5523312497175439 -1.8750110526315797
O -3.378508317336565 -1.3946137837361479 -2.625011052631578
H -2.478508317336565 -1.3946137837361479 -2.625011052631578
H -3.671519656348006 -0.5436470656967627 -2.625011052631578
O 1.2615839315918747 2.6958842518711377 -3.375011052631579
H 2.1615839315918746 2.6958842518711377 -3.375011052631579
H 0.9685725925804336 3.5468509699105226 -3.375011052631579
O 0.5382620691897329 -1.716010729575232 -4.125011052631579
H 1.438262069189733 -1.716010729575232 -4.125011052631579
H 0.24525073017829185 -0.8650440115358469 -4.125011052631579
O 2.323188432801905 0.1457280139585349 6.13887783625731
H 3.223188432801905 0.1457280139585349 6.13887783625731
H 2.030177093790464 0.99669473199792 6.13887783625731
O -2.4625476034888765 -2.2813154962663824 5.416655614035089
H -1.5625476034888766 -2.2813154962663824 5.416655614035089
H -2.7555589425003175 -1.4303487782269972 5.416655614035089
O 0.5798746065464453 4.624310867721963 4.694433391812867
H 1.4798746065464452 4.624310867721963 4.694433391812867
H 0.2868632675350043 5.475277585761348 4.694433391812867
O 3.3172693949243017 -3.9373806763972636 3.972211169590644
H 4.217269394924302 -3.9373806763972636 3.972211169590644
H 3.0242580559128607 -3.0864139583578787 3.972211169590644
O -5.356288520354969 1.1262269743683841 3.2499889473684225
H -4.456288520354969 1.1262269743683841 3.2499889473684225
H -5.64929985936641 1.9771936924077693 3.2499889473684225
O 5.239528575153387 3.359843617466187 2.5277667251461993
H 6.1395285751533875 3.359843617466187 2.5277667251461993
H 4.946517236141946 4.210810335505572 2.5277667251461993
O -1.4341935708707823 -5.884385065413655 1.8055445029239772
H -0.5341935708707822 -5.884385065413655 1.8055445029239772
H -1.7272049098822233 -5.03341834737427 1.8055445029239772
O -2.767166669456798 5.83346170066002 1.083322280701755
H -1.867166669456798 5.83346170066002 1.083322280701755
H -3.060178008468239 6.6844284186994045 1.083322280701755
O 6.282985229189717 -2.0805794536246442 0.3611000584795331
H 7.182985229189717 -2.0805794536246442 0.3611000584795331
H 5.989973890178276 -1.229612735585259 0.3611000584795331
O -5.812140675874568 -2.330558342850319 -0.3611221637426891
H -4.912140675874568 -2.330558342850319 -0.3611221637426891
H -6.105152014886009 -1.479591624810934 -0.3611221637426891
O 2.9032919048931323 5.95065725091243 -1.0833443859649112
H 3.803291904893132 5.95065725091243 -1.0833443859649112
H 2.610280565881691 6.801623968951815 -1.0833443859649112
O 2.055613049430981 -5.812258657685218 -1.8055666081871333
H 2.955613049430981 -5.812258657685218 -1.8055666081871333
H 1.7626017104195402 -4.961291939645833 -1.8055666081871333
O -4.994361532357985 3.148332261436185 -2.5277888304093556
H -4.0943615323579845 3.148332261436185 -2.5277888304093556
H -5.287372871369426 3.9992989794755704 -2.5277888304093556
O 5.6846954918531765 1.354419135491248 -3.2500110526315793
H 6.584695491853177 1.354419135491248 -3.2500110526315793
H 5.391684152841735 2.2053858535306334 -3.2500110526315793
O -2.772238412555766 -4.063237026268566 -3.9722332748538003
H -1.8722384125557663 -4.063237026268566 -3.9722332748538003
H -3.0652497515672072 -3.212270308229181 -3.9722332748538003
O -0.39093169466323546 4.604246497765467 -4.694455497076023
H 0.5090683053367646 4.604246497765467 -4.694455497076023
H -0.6839430336746765 5.455213215804852 -4.694455497076023
O 2.934217921008809 -2.1697765621689267 -5.416677719298244
H 3.834217921008809 -2.1697765621689267 -5.416677719298244
H 2.641206581997368 -1.3188098441295415 -5.416677719298244
O -1.9477115171004886 0.057458174202345655 -6.138899941520466
H -1.0477115171004887 0.057458174202345655 -6.138899941520466
H -2.2407228561119297 0.9084248922417308 -6.138899941520466
