109
Molecule with added oxygen and hydrogen atoms
Fe         0.00015        0.00003        0.00009
O         -1.44188        0.06421        1.47805
H         -1.45962       -0.46557        2.29377
O         -1.07500       -1.46397       -0.98422
H         -0.83178       -1.89807       -1.82034
O         -1.01745        1.45640       -1.05428
H         -0.89690        2.41875       -0.97655
O          1.44126       -0.06204       -1.47874
H          2.22987       -0.63168       -1.49582
O          1.07536        1.46280        0.98599
H          0.83029        1.89832        1.82082
O          1.01734       -1.45750        1.05293
H          0.89397       -2.41954        0.97603
H          1.71073       -1.31320        1.72003
H         -1.92129       -1.85074       -0.69983
H         -2.23194        0.63133        1.49182
H          1.92376        1.84694        0.70448
H         -1.70855        1.31054       -1.72345
H          1.46047        0.47293       -2.29123
O 1.7983731370317437 -3.1578947368306554e-06 4.124976315789474
H 2.698373137031744 -3.1578947368306554e-06 4.124976315789474
H 1.5053617980203027 0.8509635601446484 4.124976315789474
O -2.1948201946137114 -2.010579906005297 3.374976315789474
H -1.2948201946137115 -2.010579906005297 3.374976315789474
H -2.4878315336251524 -1.1596131879659117 3.374976315789474
O 0.31948152551276404 3.6410496924416735 2.6249763157894734
H 1.219481525512764 3.6410496924416735 2.6249763157894734
H 0.026470186501323045 4.4920164104810585 2.6249763157894734
O 2.4889179559551966 -3.2464389565696385 1.8749763157894737
H 3.3889179559551965 -3.2464389565696385 1.8749763157894737
H 2.1959066169437556 -2.395472238530253 1.8749763157894737
O -4.290564979799606 0.7589261092629049 1.1249763157894737
H -3.390564979799606 0.7589261092629049 1.1249763157894737
H -4.583576318811047 1.60989282730229 1.1249763157894737
O 3.7836284978166272 2.4068720926462213 0.37497631578947394
H 4.683628497816628 2.4068720926462213 0.37497631578947394
H 3.490617158805186 3.257838810685606 0.37497631578947394
O -1.1642196722268878 -4.330605406493152 -0.3750236842105261
H -0.2642196722268878 -4.330605406493152 -0.3750236842105261
H -1.4572310112383289 -3.4796386884537673 -0.3750236842105261
O -2.008284568933514 3.8667039525756732 -1.125023684210526
H -1.108284568933514 3.8667039525756732 -1.125023684210526
H -2.301295907944955 4.717670670615059 -1.125023684210526
O 3.8424809175692993 -1.4032942835464026 -1.875023684210527
H 4.742480917569299 -1.4032942835464026 -1.875023684210527
H 3.5494695785578583 -0.5523275655070174 -1.875023684210527
O -3.3785909489155124 -1.3946100995256214 -2.6250236842105252
H -2.4785909489155125 -1.3946100995256214 -2.6250236842105252
H -3.6716022879269534 -0.5436433814862363 -2.6250236842105252
O 1.2615013000129274 2.695887936081664 -3.375023684210526
H 2.1615013000129273 2.695887936081664 -3.375023684210526
H 0.9684899610014863 3.5468546541210495 -3.375023684210526
O 0.5381794376107855 -1.7160070453647056 -4.125023684210526
H 1.4381794376107855 -1.7160070453647056 -4.125023684210526
H 0.24516809859934446 -0.8650403273253204 -4.125023684210526
O 2.3231058012229577 0.14573169816906129 6.138865204678363
H 3.2231058012229576 0.14573169816906129 6.138865204678363
H 2.0300944622115167 0.9966984162084465 6.138865204678363
O -2.4626302350678237 -2.281311812055856 5.416642982456142
H -1.5626302350678238 -2.281311812055856 5.416642982456142
H -2.755641574079265 -1.4303450940164708 5.416642982456142
O 0.5797919749674979 4.624314551932489 4.694420760233919
H 1.479791974967498 4.624314551932489 4.694420760233919
H 0.2867806359560569 5.475281269971874 4.694420760233919
O 3.3171867633453544 -3.937376992186737 3.9721985380116966
H 4.217186763345355 -3.937376992186737 3.9721985380116966
H 3.0241754243339134 -3.086410274147352 3.9721985380116966
O -5.356371151933916 1.1262306585789106 3.249976315789475
H -4.456371151933916 1.1262306585789106 3.249976315789475
H -5.649382490945357 1.9771973766182958 3.249976315789475
O 5.23944594357444 3.3598473016767136 2.527754093567252
H 6.13944594357444 3.3598473016767136 2.527754093567252
H 4.946434604562999 4.210814019716099 2.527754093567252
O -1.4342762024497295 -5.884381381203129 1.80553187134503
H -0.5342762024497295 -5.884381381203129 1.80553187134503
H -1.7272875414611706 -5.033414663163744 1.80553187134503
O -2.7672493010357453 5.833465384870546 1.0833096491228078
H -1.8672493010357454 5.833465384870546 1.0833096491228078
H -3.0602606400471863 6.684432102909931 1.0833096491228078
O 6.28290259761077 -2.080575769414118 0.3610874269005858
H 7.18290259761077 -2.080575769414118 0.3610874269005858
H 5.989891258599329 -1.2296090513747326 0.3610874269005858
O -5.8122233074535155 -2.3305546586397927 -0.36113479532163634
H -4.912223307453515 -2.3305546586397927 -0.36113479532163634
H -6.1052346464649565 -1.4795879406004075 -0.36113479532163634
O 2.903209273314185 5.950660935122956 -1.0833570175438585
H 3.803209273314185 5.950660935122956 -1.0833570175438585
H 2.610197934302744 6.801627653162341 -1.0833570175438585
O 2.055530417852034 -5.812254973474692 -1.8055792397660806
H 2.955530417852034 -5.812254973474692 -1.8055792397660806
H 1.762519078840593 -4.961288255435307 -1.8055792397660806
O -4.994444163936932 3.1483359456467115 -2.527801461988303
H -4.094444163936932 3.1483359456467115 -2.527801461988303
H -5.287455502948373 3.9993026636860964 -2.527801461988303
O 5.684612860274229 1.3544228197017745 -3.2500236842105266
H 6.5846128602742295 1.3544228197017745 -3.2500236842105266
H 5.391601521262788 2.2053895377411594 -3.2500236842105266
O -2.7723210441347135 -4.063233342058039 -3.9722459064327476
H -1.8723210441347136 -4.063233342058039 -3.9722459064327476
H -3.0653323831461545 -3.212266624018654 -3.9722459064327476
O -0.3910143262421828 4.604250181975994 -4.69446812865497
H 0.5089856737578172 4.604250181975994 -4.69446812865497
H -0.6840256652536238 5.455216900015379 -4.69446812865497
O 2.934135289429862 -2.1697728779584002 -5.416690350877191
H 3.8341352894298617 -2.1697728779584002 -5.416690350877191
H 2.6411239504184207 -1.318806159919015 -5.416690350877191
O -1.947794148679436 0.05746185841287203 -6.138912573099414
H -1.047794148679436 0.05746185841287203 -6.138912573099414
H -2.240805487690877 0.9084285764522572 -6.138912573099414
