112
Molecule with added oxygen and hydrogen atoms
  Fe         -0.78342593432750      0.71388603342583      0.03195238722753
  O          -1.30882173722538      2.65234598482137     -0.29703226986639
  H          -1.41931293711289      3.08123181458554     -1.16417772013223
  O           1.18012631268526      1.24976509017349      0.04366957883187
  H           1.94126545352049      0.65683554486666      0.17456115582836
  O          -0.88510670214311      1.02315354785855      2.04109028572013
  H          -1.67220835037669      0.90955435350988      2.60284686625636
  O          -0.25865052844456     -1.22556909591299      0.35987380395879
  H          -0.06872061161482     -1.89608247261870     -0.32010370934433
  O          -2.74780903313805      0.17590880043096      0.02209133266423
  H          -3.50918424085267      0.76788848548967     -0.11148710357469
  O          -0.68695206882507      0.40253239057512     -1.97744320704995
  H           0.09664365735976      0.51863015375931     -2.54361716644804
  H          -1.41456948905361      0.10500108567340     -2.55192576016101
  H           1.53455850686222      2.14865820900529     -0.07641054840593
  H          -1.50106386166006      3.32354031183488      0.38162644516671
  H          -3.10148780497615     -0.72314410902560      0.14290883881282
  H          -0.15999845494595      1.31855432851770      2.61986470569910
  H          -0.14679974573119     -1.65661068697037      1.22575749481666
O 0.9058876228512295 0.7129515668421046 3.9096903297322636
H 1.8058876228512295 0.7129515668421046 3.9096903297322636
H 0.6128762838397885 1.5639182848814897 3.9096903297322636
O -2.8480998427054316 -1.1771847937323985 3.2046178813598902
H -1.9480998427054317 -1.1771847937323985 3.2046178813598902
H -3.1411111817168726 -0.3262180756930133 3.2046178813598902
O -0.4844133496968396 4.1358929639619735 2.4995454329875164
H 0.41558665030316044 4.1358929639619735 2.4995454329875164
H -0.7774246887082805 4.986859682001358 2.4995454329875164
O 1.5550664577701845 -2.339011682565141 1.7944729846151435
H 2.4550664577701844 -2.339011682565141 1.7944729846151435
H 1.2620551187587434 -1.4880449645257559 1.7944729846151435
O -4.8183023851783 1.4264183888904904 1.0894005362427701
H -3.9183023851783 1.4264183888904904 1.0894005362427701
H -5.111313724189741 2.2773851069298754 1.0894005362427701
O 2.7722194333485324 2.975646801276482 0.3843280878703969
H 3.6722194333485323 2.975646801276482 0.3843280878703969
H 2.4792080943370913 3.826613519315867 0.3843280878703969
O -1.8792357978879317 -3.358232873619482 -0.3207443605019765
H -0.9792357978879317 -3.358232873619482 -0.3207443605019765
H -2.1722471368993728 -2.507266155580097 -0.3207443605019765
O -2.6727383356294183 4.348029766199754 -1.0258168088743496
H -1.7727383356294184 4.348029766199754 -1.0258168088743496
H -2.9657496746408594 5.198996484239139 -1.0258168088743496
O 2.8275463929320725 -0.6062776461478204 -1.7308892572467238
H 3.7275463929320725 -0.6062776461478204 -1.7308892572467238
H 2.5345350539206315 0.24468907189156475 -1.7308892572467238
O -3.9609587014350076 -0.5981136742949559 -2.435961705619096
H -3.0609587014350077 -0.5981136742949559 -2.435961705619096
H -4.253970040446449 0.2528530437444293 -2.435961705619096
O 0.4011762353991889 3.247349612409061 -3.14103415399147
H 1.301176235399189 3.247349612409061 -3.14103415399147
H 0.1081648963877479 4.098316330448446 -3.14103415399147
O -0.27881618658100216 -0.9002578496311776 -3.846106602363844
H 0.6211838134189979 -0.9002578496311776 -3.846106602363844
H -0.5718275255924432 -0.049291131591792436 -3.846106602363844
O 1.4964574682859857 0.8610784022770777 6.2393384734336035
H 2.396457468285986 0.8610784022770777 6.2393384734336035
H 1.2034461292745446 1.7120451203164628 6.2393384734336035
O -3.2069816719107838 -1.5259701185326022 5.549611072350337
H -2.306981671910784 -1.5259701185326022 5.549611072350337
H -3.499993010922225 -0.675003400493217 5.549611072350337
O -0.21398329249891257 5.273971112042608 4.859883671267072
H 0.6860167075010875 5.273971112042608 4.859883671267072
H -0.5069946315103535 6.1249378300819926 4.859883671267072
O 2.4896999543786595 -3.1705400223471045 4.1701562701838055
H 3.3896999543786595 -3.1705400223471045 4.1701562701838055
H 2.1966886153672185 -2.3195733043077196 4.1701562701838055
O -6.087542163417024 1.831523313254273 3.48042886910054
H -5.187542163417024 1.831523313254273 3.48042886910054
H -6.380553502428465 2.682490031293658 3.48042886910054
O 4.413401869668588 4.05099995878614 2.7907014680172737
H 5.3134018696685885 4.05099995878614 2.7907014680172737
H 4.120390530657147 4.901966676825525 2.7907014680172737
O -2.215257325955691 -5.142886919610824 2.100974066934008
H -1.3152573259556912 -5.142886919610824 2.100974066934008
H -2.508268664967132 -4.291920201571439 2.100974066934008
O -3.5536336397078525 6.545681621281899 1.4112466658507417
H -2.6536336397078526 6.545681621281899 1.4112466658507417
H -3.8466449787192936 7.396648339321284 1.4112466658507417
O 5.519358318333541 -1.3741639747464263 0.7215192647674769
H 6.419358318333542 -1.3741639747464263 0.7215192647674769
H 5.2263469793221 -0.5231972567070411 0.7215192647674769
O -6.657957879737718 -1.6390357425716398 0.03179186368421032
H -5.7579578797377176 -1.6390357425716398 0.03179186368421032
H -6.950969218749159 -0.7880690245322546 0.03179186368421032
O 2.1605172607374534 6.762849940893766 -0.6579355373990563
H 3.0605172607374533 6.762849940893766 -0.6579355373990563
H 1.8675059217260124 7.613816658933151 -0.6579355373990563
O 1.3158139058156229 -5.250876107997015 -1.3476629384823213
H 2.2158139058156228 -5.250876107997015 -1.3476629384823213
H 1.0228025668041818 -4.39990938995763 -1.3476629384823213
O -5.980387385436191 3.9783888903598124 -2.0373903395655883
H -5.0803873854361905 3.9783888903598124 -2.0373903395655883
H -6.273398724447632 4.829355608399197 -2.0373903395655883
O 5.203384615308987 2.1372146726814716 -2.7271177406488545
H 6.103384615308987 2.1372146726814716 -2.7271177406488545
H 4.910373276297546 2.9881813907208565 -2.7271177406488545
O -3.8055676989704983 -3.696710280992118 -3.416845141732121
H -2.9055676989704984 -3.696710280992118 -3.416845141732121
H -4.098579037981939 -2.845743562952733 -3.416845141732121
O -1.2541213337167925 5.899113884023098 -4.106572542815386
H -0.35412133371679244 5.899113884023098 -4.106572542815386
H -1.5471326727282335 6.750080602062483 -4.106572542815386
O 2.7860172212015613 -1.9937279270953912 -4.796299943898653
H 3.686017221201561 -1.9937279270953912 -4.796299943898653
H 2.49300588219012 -1.142761209056006 -4.796299943898653
O -4.1320502123346055 0.7150694118513342 -5.486027344981917
H -3.2320502123346055 0.7150694118513342 -5.486027344981917
H -4.4250615513460465 1.5660361298907195 -5.486027344981917
O 0.8856619438240103 2.34077083098488 -6.175754746065184
H 1.7856619438240102 2.34077083098488 -6.175754746065184
H 0.5926506048125693 3.191737549024265 -6.175754746065184
