112
Molecule with added oxygen and hydrogen atoms
  Fe         -0.78347729032077      0.71384176657388      0.03199319902618
  O          -1.30728302109045      2.64895292680151     -0.29682021591587
  H          -1.41790506071356      3.07896170287779     -1.16452986946839
  O           1.17669104345108      1.24841821011384      0.04335493323910
  H           1.93920726436896      0.65550430857657      0.17381945937449
  O          -0.88490472656264      1.02317841923128      2.03743451579717
  H          -1.67226867441199      0.90953824384339      2.60058800783687
  O          -0.25991138550047     -1.22220128395717      0.35946359473074
  H          -0.06911327865664     -1.89398571187819     -0.32046437316142
  O          -2.74443063692473      0.17720136530986      0.02246931808006
  H          -3.50719006262211      0.76912376230714     -0.11087007052551
  O          -0.68736502484639      0.40264750593269     -1.97374589852656
  H           0.09657601283896      0.51891946929226     -2.54115612503009
  H          -1.41508578869544      0.10472643436784     -2.54959975996152
  H           1.53223714304699      2.14802908911062     -0.07626366679788
  H          -1.50071969276325      3.32133469960534      0.38177461205550
  H          -3.09925571309735     -0.72252293647329      0.14312082659315
  H          -0.15955801239844      1.31869759918365      2.61755034859517
  H          -0.14776066510173     -1.65428580081901      1.22592657405881
O 0.9050639862917798 0.7129515668421051 3.9078011886917774
H 1.8050639862917799 0.7129515668421051 3.9078011886917774
H 0.6120526472803387 1.5639182848814903 3.9078011886917774
O -2.8470947021969035 -1.1762640026899969 3.2030722205085835
H -1.9470947021969036 -1.1762640026899969 3.2030722205085835
H -3.1401060412083446 -0.3252972846506117 3.2030722205085835
O -0.48455969296228896 4.134225457932846 2.4983432523253892
H 0.41544030703771107 4.134225457932846 2.4983432523253892
H -0.7775710319737299 4.985192175972231 2.4983432523253892
O 1.553926569924014 -2.3375249007220904 1.7936142841421956
H 2.453926569924014 -2.3375249007220904 1.7936142841421956
H 1.2609152309125728 -1.4865581826827052 1.7936142841421956
O -4.816337448916056 1.426070819332815 1.0888853159590015
H -3.9163374489160563 1.426070819332815 1.0888853159590015
H -5.109348787927497 2.2770375373722 1.0888853159590015
O 2.7704866022732273 2.9745445159879664 0.3841563477758078
H 3.670486602273227 2.9745445159879664 0.3841563477758078
H 2.4774752632617862 3.825511234027352 0.3841563477758078
O -1.878702645195934 -3.356249572180003 -0.32057262040738627
H -0.9787026451959341 -3.356249572180003 -0.32057262040738627
H -2.171713984207375 -2.505282854140618 -0.32057262040738627
O -2.6718186235102204 4.346258916480013 -1.02530158859058
H -1.7718186235102205 4.346258916480013 -1.02530158859058
H -2.9648299625216614 5.197225634519398 -1.02530158859058
O 2.8257866090030737 -0.6056349758794033 -1.730030556773775
H 3.7257866090030736 -0.6056349758794033 -1.730030556773775
H 2.5327752699916326 0.24533174215998188 -1.730030556773775
O -3.959411425189636 -0.5974749811534323 -2.434759524956968
H -3.0594114251896363 -0.5974749811534323 -2.434759524956968
H -4.252422764201077 0.25349173688595283 -2.434759524956968
O 0.40059847195993137 3.2461149654984403 -3.1394884931401625
H 1.3005984719599315 3.2461149654984403 -3.1394884931401625
H 0.10758713294849037 4.097081683537826 -3.1394884931401625
O -0.27906268771341225 -0.8994719651779761 -3.844217461323357
H 0.6209373122865878 -0.8994719651779761 -3.844217461323357
H -0.5720740267248532 -0.048505247138590946 -3.844217461323357
O 1.4957647292911573 0.8610966894415722 6.237362221202447
H 2.3957647292911575 0.8610966894415722 6.237362221202447
H 1.2027533902797163 1.7120634074809575 6.237362221202447
O -3.206177010615402 -1.5251918837975618 5.54785440370042
H -2.3061770106154023 -1.5251918837975618 5.54785440370042
H -3.499188349626843 -0.6742251657581766 5.54785440370042
O -0.2141314906981137 5.272584498106586 4.858346586198395
H 0.6858685093018864 5.272584498106586 4.858346586198395
H -0.5071428297095547 6.123551216145971 4.858346586198395
O 2.4886910038750623 -3.1692382176502045 4.168838768696368
H 3.388691003875062 -3.1692382176502045 4.168838768696368
H 2.195679664863621 -2.3182714996108196 4.168838768696368
O -6.085820438673519 1.8312326468109894 3.4793309511943415
H -5.1858204386735185 1.8312326468109894 3.4793309511943415
H -6.37883177768496 2.6821993648503746 3.4793309511943415
O 4.411780483940389 4.05000269343213 2.789823133692315
H 5.31178048394039 4.05000269343213 2.789823133692315
H 4.118769144928948 4.9009694114715145 2.789823133692315
O -2.214768392849657 -5.140957192934213 2.100315316190289
H -1.3147683928496572 -5.140957192934213 2.100315316190289
H -2.507779731861098 -4.289990474894828 2.100315316190289
O -3.5527186173039906 6.543890141963584 1.4108074986882628
H -2.6527186173039907 6.543890141963584 1.4108074986882628
H -3.8457299563154317 7.394856860002969 1.4108074986882628
O 5.517384837158196 -1.3734340694479923 0.7212996811862376
H 6.417384837158196 -1.3734340694479923 0.7212996811862376
H 5.224373498146755 -0.5224673514086071 0.7212996811862376
O -6.656054555820991 -1.6382215119422754 0.0317918636842108
H -5.756054555820991 -1.6382215119422754 0.0317918636842108
H -6.949065894832432 -0.7872547939028902 0.0317918636842108
O 2.159613109774426 6.7609893232502545 -0.6577159538178161
H 3.059613109774426 6.7609893232502545 -0.6577159538178161
H 1.8666017707629852 7.611956041289639 -0.6577159538178161
O 1.3151786770202052 -5.248912001574603 -1.3472237713198412
H 2.215178677020205 -5.248912001574603 -1.3472237713198412
H 1.0221673380087641 -4.397945283535218 -1.3472237713198412
O -5.978699774793211 3.977414741672499 -2.0367315888218687
H -5.07869977479321 3.977414741672499 -2.0367315888218687
H -6.271711113804652 4.828381459711884 -2.0367315888218687
O 5.201511728422311 2.1368266854657327 -2.726239406323895
H 6.101511728422311 2.1368266854657327 -2.726239406323895
H 4.90850038941087 2.987793403505118 -2.726239406323895
O -3.804572470121478 -3.695240963232008 -3.415747223825922
H -2.904572470121478 -3.695240963232008 -3.415747223825922
H -4.097583809132919 -2.844274245192623 -3.415747223825922
O -1.2539383906046355 5.897528247852437 -4.105255041327947
H -0.3539383906046355 5.897528247852437 -4.105255041327947
H -1.5469497296160766 6.748494965891822 -4.105255041327947
O 2.7849139342883475 -1.992800775651233 -4.794762858829974
H 3.6849139342883475 -1.992800775651233 -4.794762858829974
H 2.4919025952769065 -1.1418340576118478 -4.794762858829974
O -4.130951043582105 0.7151341828541692 -5.484270676331998
H -3.2309510435821047 0.7151341828541692 -5.484270676331998
H -4.423962382593546 1.5661009008935545 -5.484270676331998
O 0.8851636594332128 2.3403180390504166 -6.173778493834026
H 1.7851636594332128 2.3403180390504166 -6.173778493834026
H 0.5921523204217718 3.191284757089802 -6.173778493834026
