112
Molecule with added oxygen and hydrogen atoms
  Fe         -0.78349864734905      0.71392292261949      0.03190371411572
  O          -1.30899859817998      2.64994901233142     -0.29633394138371
  H          -1.41943917130939      3.07745731008809     -1.16379267789942
  O           1.17741610560745      1.24943277414176      0.04366442085758
  H           1.93737359059928      0.65544378149202      0.17421480429494
  O          -0.88473423120437      1.02284705436718      2.03873422899820
  H          -1.67212416213883      0.90932017493527      2.59950956658363
  O          -0.25804201130989     -1.22310541051749      0.35909968370227
  H          -0.06847228790560     -1.89236522322574     -0.32173135401694
  O          -2.74517013782666      0.17607397827779      0.02221847199403
  H          -3.50544902977167      0.76893034574464     -0.11140632196384
  O          -0.68765505454208      0.40307239352534     -1.97526928957015
  H           0.09626897253958      0.51924856996967     -2.54038377039565
  H          -1.41597235866551      0.10481217667511     -2.54793530884986
  H           1.53037860150171      2.14844832613729     -0.07716543379523
  H          -1.50119344602708      3.31975793861724      0.38323680132700
  H          -3.09730137678715     -0.72304202133018      0.14445554715435
  H          -0.15871579243666      1.31853339865299      2.61567380415639
  H          -0.14618853479407     -1.65265773250191      1.22535246469067
O 0.9044159089863586 0.7129515668421044 3.906314720636138
H 1.8044159089863587 0.7129515668421044 3.906314720636138
H 0.6114045699749175 1.5639182848814897 3.906314720636138
O -2.846303808756269 -1.1755394795119432 3.2018560193721513
H -1.946303808756269 -1.1755394795119432 3.2018560193721513
H -3.13931514776771 -0.324572761472558 3.2018560193721513
O -0.4846748429614615 4.132913383084139 2.4973973181081637
H 0.4153251570385385 4.132913383084139 2.4973973181081637
H -0.7776861819729025 4.983880101123524 2.4973973181081637
O 1.553029650724213 -2.336355028453143 1.792938616844177
H 2.453029650724213 -2.336355028453143 1.792938616844177
H 1.260018311712772 -1.485388310413758 1.792938616844177
O -4.814791341493373 1.4257973346995731 1.0884799155801899
H -3.914791341493373 1.4257973346995731 1.0884799155801899
H -5.107802680504814 2.276764052738958 1.0884799155801899
O 2.769123126500874 2.97367718430946 0.3840212143162033
H 3.669123126500874 2.97367718430946 0.3840212143162033
H 2.476111787489433 3.8246439023488454 0.3840212143162033
O -1.8782831347261244 -3.3546890141426173 -0.32043748694778385
H -0.9782831347261244 -3.3546890141426173 -0.32043748694778385
H -2.1712944737375652 -2.5037222961032324 -0.32043748694778385
O -2.671094949281419 4.344865525789049 -1.0248961882117706
H -1.771094949281419 4.344865525789049 -1.0248961882117706
H -2.96410628829286 5.195832243828434 -1.0248961882117706
O 2.824401925414488 -0.6051292916536967 -1.7293548894757587
H 3.724401925414488 -0.6051292916536967 -1.7293548894757587
H 2.531390586403047 0.2458374263856885 -1.7293548894757587
O -3.958193952982585 -0.5969724263246073 -2.433813590739744
H -3.058193952982585 -0.5969724263246073 -2.433813590739744
H -4.251205291994026 0.25399429171477783 -2.433813590739744
O 0.40014385958437715 3.2451434852577905 -3.138272292003732
H 1.3001438595843773 3.2451434852577905 -3.138272292003732
H 0.10713252057293615 4.096110203297176 -3.138272292003732
O -0.2792566467938379 -0.8988535930659584 -3.842730993267719
H 0.6207433532061621 -0.8988535930659584 -3.842730993267719
H -0.5722679858052788 -0.047886875026573184 -3.842730993267719
O 1.4952196488762284 0.861111078672056 6.2358072107719265
H 2.3952196488762283 0.861111078672056 6.2358072107719265
H 1.2022083098647873 1.7120777967114411 6.2358072107719265
O -3.2055438643681535 -1.5245795312199824 5.546472172206625
H -2.3055438643681536 -1.5245795312199824 5.546472172206625
H -3.4985552033795946 -0.6736128131805972 5.546472172206625
O -0.21424810019030693 5.271493443492047 4.857137133641324
H 0.6857518998096931 5.271493443492047 4.857137133641324
H -0.507259439201748 6.122460161531432 4.857137133641324
O 2.4878971130164897 -3.168213895011839 4.167802095076021
H 3.3878971130164897 -3.168213895011839 4.167802095076021
H 2.1948857740050487 -2.3172471769724536 4.167802095076021
O -6.084465702740097 1.8310039364638648 3.478467056510719
H -5.184465702740097 1.8310039364638648 3.478467056510719
H -6.377477041751538 2.68197065450325 3.478467056510719
O 4.410504699552609 4.0492179970326925 2.789132017945417
H 5.3105046995526095 4.0492179970326925 2.789132017945417
H 4.117493360541168 4.900184715072077 2.789132017945417
O -2.2143836767470555 -5.139438791041893 2.0997969793801152
H -1.3143836767470556 -5.139438791041893 2.0997969793801152
H -2.5073950157584965 -4.288472073002508 2.0997969793801152
O -3.551998633621669 6.542480519768196 1.4104619408148131
H -2.651998633621669 6.542480519768196 1.4104619408148131
H -3.84500997263311 7.393447237807581 1.4104619408148131
O 5.515832007115912 -1.3728597447986508 0.7211269022495124
H 6.415832007115912 -1.3728597447986508 0.7211269022495124
H 5.222820668104471 -0.5218930267592656 0.7211269022495124
O -6.6545569289123785 -1.637580836061503 0.031791863684209866
H -5.754556928912378 -1.637580836061503 0.031791863684209866
H -6.9475682679238195 -0.7866141180221178 0.031791863684209866
O 2.158901680241453 6.759525299690946 -0.6575431748810926
H 3.058901680241453 6.759525299690946 -0.6575431748810926
H 1.865890341230012 7.610492017730331 -0.6575431748810926
O 1.3146788483998266 -5.24736654804258 -1.3468782134463935
H 2.2146788483998265 -5.24736654804258 -1.3468782134463935
H 1.0216675093883856 -4.396399830003195 -1.3468782134463935
O -5.977371881476996 3.976648234579704 -2.0362132520116965
H -5.077371881476996 3.976648234579704 -2.0362132520116965
H -6.270383220488437 4.827614952619089 -2.0362132520116965
O 5.200038050810907 2.136521398447934 -2.7255482905769983
H 6.100038050810907 2.136521398447934 -2.7255482905769983
H 4.907026711799466 2.9874881164873193 -2.7255482905769983
O -3.803789376145415 -3.6940848332481866 -3.414883329142301
H -2.903789376145415 -3.6940848332481866 -3.414883329142301
H -4.0968007151568555 -2.843118115208801 -3.414883329142301
O -1.2537944421654983 5.896280592958895 -4.104218367707602
H -0.35379444216549827 5.896280592958895 -4.104218367707602
H -1.5468057811769393 6.74724731099828 -4.104218367707602
O 2.784045814999508 -1.9920712482351877 -4.793553406272904
H 3.684045814999508 -1.9920712482351877 -4.793553406272904
H 2.491034475988067 -1.1411045301958025 -4.793553406272904
O -4.130086164684304 0.7151851478072911 -5.4828884448382045
H -3.230086164684304 0.7151851478072911 -5.4828884448382045
H -4.423097503695745 1.5661518658466762 -5.4828884448382045
O 0.8847715852655439 2.3399617605589715 -6.172223483403507
H 1.784771585265544 2.3399617605589715 -6.172223483403507
H 0.591760246254103 3.190928478598357 -6.172223483403507
