55
Molecule with added oxygen and hydrogen atoms
Fe         0.00001       -0.00001        0.00001
O          0.59330        1.60618       -1.09448
H          0.18979        1.92164       -1.92195
O          1.25571       -1.19042       -1.06584
H          1.38310       -2.14783       -0.94671
O          1.48385        0.36512        1.33964
H          1.42118        0.92781        2.13114
O         -0.59341       -1.60610        1.09455
H         -1.33424       -2.20265        0.88880
O         -1.25566        1.19041        1.06588
H         -1.38346        2.14778        0.94615
O         -1.48378       -0.36515       -1.33971
H         -1.42103       -0.92767       -2.13133
H         -2.38918       -0.00968       -1.30910
H          1.84109       -0.90926       -1.79064
H          1.33402        2.20283       -0.88867
H         -1.84089        0.90919        1.79091
H          2.38918        0.00948        1.30910
H         -0.18978       -1.92170        1.92191
O 1.7984262949264807 -1.5789473684313965e-06 4.1249821052631575
H 2.6984262949264806 -1.5789473684313965e-06 4.1249821052631575
H 1.5054149559150396 0.8509651390920168 4.1249821052631575
O -2.1947670367189747 -2.0105783270579285 3.374982105263158
H -1.2947670367189748 -2.0105783270579285 3.374982105263158
H -2.4877783757304157 -1.1596116090185433 3.374982105263158
O 0.31953468340750096 3.641051271389042 2.6249821052631575
H 1.219534683407501 3.641051271389042 2.6249821052631575
H 0.026523344396059967 4.492017989428427 2.6249821052631575
O 2.4889711138499333 -3.24643737762227 1.874982105263158
H 3.388971113849933 -3.24643737762227 1.874982105263158
H 2.1959597748384923 -2.3954706595828847 1.874982105263158
O -4.290511821904869 0.7589276882102733 1.124982105263158
H -3.390511821904869 0.7589276882102733 1.124982105263158
H -4.58352316091631 1.6098944062496585 1.124982105263158
O 3.783681655711364 2.4068736715935897 0.37498210526315817
H 4.683681655711364 2.4068736715935897 0.37498210526315817
H 3.490670316699923 3.2578403896329746 0.37498210526315817
O -1.164166514332151 -4.330603827545784 -0.3750178947368419
H -0.2641665143321509 -4.330603827545784 -0.3750178947368419
H -1.457177853343592 -3.479637109506399 -0.3750178947368419
O -2.008231411038777 3.8667055315230416 -1.1250178947368417
H -1.1082314110387772 3.8667055315230416 -1.1250178947368417
H -2.301242750050218 4.717672249562427 -1.1250178947368417
O 3.842534075464036 -1.4032927045990342 -1.8750178947368428
H 4.742534075464036 -1.4032927045990342 -1.8750178947368428
H 3.549522736452595 -0.552325986559649 -1.8750178947368428
O -3.3785377910207757 -1.394608520578253 -2.625017894736841
H -2.4785377910207758 -1.394608520578253 -2.625017894736841
H -3.6715491300322167 -0.5436418025388678 -2.625017894736841
O 1.2615544579076643 2.6958895150290325 -3.375017894736842
H 2.1615544579076644 2.6958895150290325 -3.375017894736842
H 0.9685431188962232 3.546856233068418 -3.375017894736842
O 0.5382325955055224 -1.7160054664173372 -4.1250178947368425
H 1.4382325955055224 -1.7160054664173372 -4.1250178947368425
H 0.24522125649408139 -0.865038748377952 -4.1250178947368425
