55
Molecule with added oxygen and hydrogen atoms
Fe         0.00004        0.00002       -0.00002
O         -1.43046        0.13437       -1.45413
H         -2.35414       -0.17422       -1.38745
O          0.56021       -1.82939       -0.71982
H          1.26899       -2.39887       -0.36459
O          1.34912        0.90203       -1.24303
H          1.51554        1.86092       -1.31850
O          1.43017       -0.13445        1.45442
H          1.31648       -0.51931        2.34427
O         -0.56004        1.82952        0.71963
H         -1.26844        2.39921        0.36402
O         -1.34907       -0.90212        1.24296
H         -1.51548       -1.86101        1.31834
H         -1.94645       -0.45423        1.87175
H          0.16887       -2.29597       -1.48272
H         -1.31701        0.51864       -2.34430
H         -0.16909        2.29590        1.48288
H          1.94653        0.45407       -1.87174
H          2.35374        0.17463        1.38847
O 1.798411031768586 -1.3684210526326554e-05 4.125023157894737
H 2.698411031768586 -1.3684210526326554e-05 4.125023157894737
H 1.505399692757145 0.8509530338288589 4.125023157894737
O -2.194782299876869 -2.0105904323210866 3.375023157894737
H -1.2947822998768692 -2.0105904323210866 3.375023157894737
H -2.48779363888831 -1.1596237142817014 3.375023157894737
O 0.3195194202496063 3.641039166125884 2.6250231578947365
H 1.2195194202496062 3.641039166125884 2.6250231578947365
H 0.026508081238165282 4.492005884165269 2.6250231578947365
O 2.488955850692039 -3.2464494828854282 1.8750231578947367
H 3.3889558506920388 -3.2464494828854282 1.8750231578947367
H 2.195944511680598 -2.395482764846043 1.8750231578947367
O -4.290527085062763 0.7589155829471155 1.1250231578947367
H -3.390527085062763 0.7589155829471155 1.1250231578947367
H -4.583538424074204 1.6098823009865006 1.1250231578947367
O 3.7836663925534695 2.4068615663304316 0.3750231578947371
H 4.683666392553469 2.4068615663304316 0.3750231578947371
H 3.4906550535420284 3.2578282843698165 0.3750231578947371
O -1.1641817774900456 -4.330615932808942 -0.37497684210526294
H -0.26418177749004557 -4.330615932808942 -0.37497684210526294
H -1.4571931165014866 -3.479649214769557 -0.37497684210526294
O -2.0082466741966716 3.8666934262598835 -1.1249768421052628
H -1.1082466741966717 3.8666934262598835 -1.1249768421052628
H -2.3012580132081126 4.717660144299269 -1.1249768421052628
O 3.8425188123061416 -1.403304809862192 -1.874976842105264
H 4.742518812306142 -1.403304809862192 -1.874976842105264
H 3.5495074732947005 -0.5523380918228069 -1.874976842105264
O -3.37855305417867 -1.3946206258414109 -2.624976842105262
H -2.4785530541786702 -1.3946206258414109 -2.624976842105262
H -3.671564393190111 -0.5436539078020257 -2.624976842105262
O 1.2615391947497696 2.6958774097658744 -3.374976842105263
H 2.1615391947497695 2.6958774097658744 -3.374976842105263
H 0.9685278557383286 3.54684412780526 -3.374976842105263
O 0.5382173323476277 -1.716017571680495 -4.124976842105263
H 1.4382173323476277 -1.716017571680495 -4.124976842105263
H 0.2452059933361867 -0.8650508536411099 -4.124976842105263
