55
Molecule with added oxygen and hydrogen atoms
  Fe         -0.78372277355183      0.71358381243109      0.03212439651284
  O          -1.31279127818757      2.65805815831768     -0.29708685105810
  H          -1.42310375741457      3.08762602251584     -1.16631054636153
  O           1.18463140490826      1.25246588510009      0.04538229175160
  H           1.94713038868857      0.65777561734404      0.17632173127986
  O          -0.88546910065110      1.02396025106581      2.04753221049008
  H          -1.67342118853549      0.91043046627430      2.61173422138866
  O          -0.25488104401024     -1.23162740952401      0.36015997175165
  H          -0.06631896716066     -1.90363542608269     -0.32171769568846
  O          -2.75249683302188      0.17275640732801      0.01992879028357
  H          -3.51510042729258      0.76693205699800     -0.11256121918943
  O          -0.68627805368705      0.40252880627137     -1.98384909338329
  H           0.09912602795163      0.51712164131457     -2.55139825313083
  H          -1.41663371116431      0.10467937818327     -2.55828819351553
  H           1.53917807414477      2.15322750828319     -0.07767745450661
  H          -1.50492565411214      3.33021941336526      0.38364338682976
  H          -3.10659120420851     -0.72821871608127      0.14250912839368
  H          -0.15742700066388      1.32107302632598      2.62535034989213
  H          -0.14242247203138     -1.66287712943057      1.22824823825995
O 1.013620107031746 0.7129515668421033 4.1567918636842105
H 1.913620107031746 0.7129515668421033 4.1567918636842105
H 0.720608768020305 1.5639182848814883 4.1567918636842105
O -2.979573224613709 -1.2976251812684567 3.4067918636842105
H -2.0795732246137093 -1.2976251812684567 3.4067918636842105
H -3.2725845636251503 -0.44665846322907155 3.4067918636842105
O -0.4652715044872337 4.354004417178514 2.65679186368421
H 0.4347284955127663 4.354004417178514 2.65679186368421
H -0.7582828434986747 5.204971135217899 2.65679186368421
O 1.7041649259551988 -2.5334842318327984 1.9067918636842105
H 2.6041649259551987 -2.5334842318327984 1.9067918636842105
H 1.4111535869437577 -1.6825175137934132 1.9067918636842105
O -5.075318009799603 1.471880833999745 1.1567918636842105
H -4.175318009799603 1.471880833999745 1.1567918636842105
H -5.368329348811044 2.3228475520391303 1.1567918636842105
O 2.9988754678166294 3.1198268173830614 0.40679186368421083
H 3.8988754678166293 3.1198268173830614 0.40679186368421083
H 2.7058641288051883 3.9707935354224464 0.40679186368421083
O -1.9489727022268855 -3.617650681756312 -0.3432081363157892
H -1.0489727022268855 -3.617650681756312 -0.3432081363157892
H -2.2419840412383265 -2.766683963716927 -0.3432081363157892
O -2.7930375989335117 4.579658677312513 -1.093208136315789
H -1.8930375989335118 4.579658677312513 -1.093208136315789
H -3.0860489379449527 5.430625395351898 -1.093208136315789
O 3.0577278875693015 -0.6903395588095625 -1.8432081363157902
H 3.9577278875693014 -0.6903395588095625 -1.8432081363157902
H 2.7647165485578604 0.16062715922982262 -1.8432081363157902
O -4.16334397891551 -0.6816553747887814 -2.5932081363157886
H -3.26334397891551 -0.6816553747887814 -2.5932081363157886
H -4.456355317926951 0.16931134325060382 -2.5932081363157886
O 0.47674827001292963 3.4088426608185043 -3.3432081363157895
H 1.3767482700129297 3.4088426608185043 -3.3432081363157895
H 0.18373693100148863 4.25980937885789 -3.3432081363157895
O -0.24657359238921228 -1.0030523206278654 -4.0932081363157895
H 0.6534264076107877 -1.0030523206278654 -4.0932081363157895
H -0.5395849314006533 -0.15208560258848025 -4.0932081363157895
