55
Molecule with added oxygen and hydrogen atoms
  Fe         -0.78349864734905      0.71392292261949      0.03190371411572
  O          -1.30899859817998      2.64994901233142     -0.29633394138371
  H          -1.41943917130939      3.07745731008809     -1.16379267789942
  O           1.17741610560745      1.24943277414176      0.04366442085758
  H           1.93737359059928      0.65544378149202      0.17421480429494
  O          -0.88473423120437      1.02284705436718      2.03873422899820
  H          -1.67212416213883      0.90932017493527      2.59950956658363
  O          -0.25804201130989     -1.22310541051749      0.35909968370227
  H          -0.06847228790560     -1.89236522322574     -0.32173135401694
  O          -2.74517013782666      0.17607397827779      0.02221847199403
  H          -3.50544902977167      0.76893034574464     -0.11140632196384
  O          -0.68765505454208      0.40307239352534     -1.97526928957015
  H           0.09626897253958      0.51924856996967     -2.54038377039565
  H          -1.41597235866551      0.10481217667511     -2.54793530884986
  H           1.53037860150171      2.14844832613729     -0.07716543379523
  H          -1.50119344602708      3.31975793861724      0.38323680132700
  H          -3.09730137678715     -0.72304202133018      0.14445554715435
  H          -0.15871579243666      1.31853339865299      2.61567380415639
  H          -0.14618853479407     -1.65265773250191      1.22535246469067
O 1.0136201070317452 0.7129515668421044 4.15679186368421
H 1.9136201070317451 0.7129515668421044 4.15679186368421
H 0.7206087680203042 1.5639182848814897 4.15679186368421
O -2.97957322461371 -1.2976251812684558 3.4067918636842096
H -2.07957322461371 -1.2976251812684558 3.4067918636842096
H -3.272584563625151 -0.44665846322907066 3.4067918636842096
O -0.4652715044872345 4.354004417178515 2.656791863684209
H 0.43472849551276554 4.354004417178515 2.656791863684209
H -0.7582828434986755 5.2049711352179 2.656791863684209
O 1.704164925955198 -2.5334842318327975 1.9067918636842094
H 2.604164925955198 -2.5334842318327975 1.9067918636842094
H 1.411153586943757 -1.6825175137934123 1.9067918636842094
O -5.075318009799604 1.4718808339997462 1.1567918636842094
H -4.175318009799604 1.4718808339997462 1.1567918636842094
H -5.368329348811045 2.322847552039131 1.1567918636842094
O 2.998875467816629 3.1198268173830623 0.4067918636842097
H 3.898875467816629 3.1198268173830623 0.4067918636842097
H 2.705864128805188 3.9707935354224473 0.4067918636842097
O -1.9489727022268863 -3.617650681756311 -0.3432081363157903
H -1.0489727022268864 -3.617650681756311 -0.3432081363157903
H -2.2419840412383274 -2.7666839637169263 -0.3432081363157903
O -2.7930375989335126 4.579658677312515 -1.0932081363157902
H -1.8930375989335126 4.579658677312515 -1.0932081363157902
H -3.0860489379449536 5.4306253953519 -1.0932081363157902
O 3.0577278875693006 -0.6903395588095614 -1.8432081363157913
H 3.9577278875693005 -0.6903395588095614 -1.8432081363157913
H 2.7647165485578595 0.16062715922982373 -1.8432081363157913
O -4.163343978915511 -0.6816553747887802 -2.5932081363157895
H -3.2633439789155108 -0.6816553747887802 -2.5932081363157895
H -4.456355317926952 0.16931134325060493 -2.5932081363157895
O 0.47674827001292885 3.408842660818505 -3.3432081363157904
H 1.376748270012929 3.408842660818505 -3.3432081363157904
H 0.18373693100148786 4.259809378857891 -3.3432081363157904
O -0.24657359238921306 -1.0030523206278645 -4.09320813631579
H 0.653426407610787 -1.0030523206278645 -4.09320813631579
H -0.539584931400654 -0.15208560258847936 -4.09320813631579
