109
Molecule with added oxygen and hydrogen atoms
C           -3.12719026940893       -1.21989142599764        0.09048955769791
C           -3.65950235179308       -0.10923500988010        0.69822532934549
C           -2.82223412568807        0.95051082017585        1.05717942696396
C           -1.43912769959748        0.95175245291760        0.81968475935843
C           -0.86357755161678       -0.25251587722096        0.19224343540817
C           -1.75282320665239       -1.28150276974947       -0.15427778627159
O            0.40923989585656       -0.36443033057936       -0.02369729880383
O           -0.70359235121115        1.97101397265655        1.13708271953892
H           -3.76284043720721       -2.05432362877734       -0.20350013441140
H           -4.72786210818682       -0.04161121032385        0.89996731159624
H           -3.25184584817259        1.83698295866151        1.53333117204132
H           -1.33134187785214       -2.16924398331685       -0.63578908552465
Fe           1.65965233201182        1.67681733591309        0.51182238007489
C            4.04943366598696        2.95202458268065        5.43235222536873
C            4.16527167351616        4.19572786191245        4.86136920905436
C            3.67941226635814        4.41060326096984        3.56890402388239
C            3.06232241134171        3.40917819725055        2.80342766479251
C            2.96187070542235        2.06733734394963        3.40634162254196
C            3.45442822127551        1.91325456365255        4.71136887315843
O            2.44565348048358        1.06868931433192        2.76056348942464
O            2.59700475398197        3.65921905511887        1.61967711034458
H            4.41825977370083        2.76386385833060        6.43992240536665
H            4.62975792129682        5.01821324406421        5.40403229143250
H            3.76900381485020        5.40410787919423        3.11944560769019
H            3.36973193322637        0.92237915188265        5.16749440326354
C            4.65335331290977        1.65680647196433       -4.23746573918050
C            3.55873781935133        2.32574700303102       -4.72792131311644
C            2.49107836230957        2.62120872484073       -3.87628599828513
C            2.47050613721453        2.26804845025632       -2.51808431139667
C            3.63434047179790        1.52624964666835       -1.99789836993009
C            4.68372254521334        1.27206346385722       -2.89433445512507
O            3.68897753619261        1.12167093641333       -0.76741189151507
O            1.47285603850955        2.58972713682729       -1.75632470826615
H            5.49721478877354        1.41806507194461       -4.88362117530318
H            3.51168858092665        2.62936559832950       -5.77306789879317
H            1.62179005313004        3.15717701083404       -4.26948897475373
H            5.55432933174701        0.73224886721041       -2.50985587767329
O 3.978088217793273 1.6485756756755225 8.30512385446106
H 4.878088217793273 1.6485756756755225 8.30512385446106
H 3.6850768787818318 2.4995423937149077 8.30512385446106
O -1.3191179392765073 -1.0470588365800622 7.618205681452685
H -0.4191179392765073 -1.0470588365800622 7.618205681452685
H -1.6121292782879484 -0.19609211854067699 7.618205681452685
O 2.0637359374604545 6.665391445187814 6.931287508444311
H 2.9637359374604544 6.665391445187814 6.931287508444311
H 1.7707245984490134 7.516358163227199 6.931287508444311
O 5.163692971826786 -2.969042609329267 6.244369335435936
H 6.063692971826787 -2.969042609329267 6.244369335435936
H 4.870681632815345 -2.118075891289882 6.244369335435936
O -4.71288837588622 2.7693849551408443 5.557451162427563
H -3.8128883758862204 2.7693849551408443 5.557451162427563
H -5.005899714897661 3.620351673180229 5.557451162427563
O 7.469854051931215 5.367578514110075 4.870532989419188
H 8.369854051931215 5.367578514110075 4.870532989419188
H 7.176842712919774 6.21854523214946 4.870532989419188
O -0.27847019613691093 -5.426477680571506 4.183614816410812
H 0.6215298038630891 -5.426477680571506 4.183614816410812
H -0.571481535148352 -4.575510962532121 4.183614816410812
O -1.8985615075592046 8.429997116074503 3.496696643402439
H -0.9985615075592046 8.429997116074503 3.496696643402439
H -2.1915728465706454 9.280963834113889 3.496696643402439
O 9.029635170346664 -1.0561507765111904 2.8097784703940634
H 9.929635170346664 -1.0561507765111904 2.8097784703940634
H 8.736623831335223 -0.2051840584718052 2.8097784703940634
O -5.828760072132093 -1.4275888680486581 2.1228602973856896
H -4.928760072132093 -1.4275888680486581 2.1228602973856896
H -6.121771411143534 -0.576622150009273 2.1228602973856896
O 5.0898190077277565 9.056002015290792 1.4359421243773154
H 5.989819007727757 9.056002015290792 1.4359421243773154
H 4.7968076687163155 9.906968733330178 1.4359421243773154
O 4.088311230523433 -6.209786026032075 0.7490239513689401
H 4.988311230523434 -6.209786026032075 0.7490239513689401
H 3.795299891511992 -5.3588193079926905 0.7490239513689401
O -5.502306670674117 5.778098102101801 0.0621057783605648
H -4.602306670674117 5.778098102101801 0.0621057783605648
H -5.795318009685558 6.629064820141186 0.0621057783605648
O 9.611063248187554 3.4046297441822047 -0.6248123946478089
H 10.511063248187554 3.4046297441822047 -0.6248123946478089
H 9.318051909176113 4.25559646222159 -0.6248123946478089
O -3.0133276901630186 -4.946765370891803 -1.3117305676561828
H -2.1133276901630187 -4.946765370891803 -1.3117305676561828
H -3.3063390291744597 -4.095798652852418 -1.3117305676561828
O 0.6101944443891787 9.46780929428552 -1.9986487406645583
H 1.5101944443891786 9.46780929428552 -1.9986487406645583
H 0.3171831053777377 10.318776012324905 -1.9986487406645583
O 7.466503095298942 -3.275954520006537 -2.6855669136729325
H 8.366503095298942 -3.275954520006537 -2.6855669136729325
H 7.173491756287501 -2.424987801967152 -2.6855669136729325
O -5.696525141046825 1.3458716663179822 -3.3724850866813054
H -4.796525141046825 1.3458716663179822 -3.3724850866813054
H -5.989536480058266 2.1968383843573673 -3.3724850866813054
O 6.534949065810626 6.536171899842692 -4.059403259689683
H 7.434949065810627 6.536171899842692 -4.059403259689683
H 6.241937726799185 7.387138617882077 -4.059403259689683
O 1.3262230729381421 -4.779259879969598 -4.746321432698056
H 2.2262230729381423 -4.779259879969598 -4.746321432698056
H 1.033211733926701 -3.9282931619302133 -4.746321432698056
O -2.1045570437246734 6.115975676078497 -5.433239605706431
H -1.2045570437246735 6.115975676078497 -5.433239605706431
H -2.3975683827361145 6.966942394117882 -5.433239605706431
O 6.6145748176232555 0.9770270725037657 -6.120157778714806
H 7.514574817623256 0.9770270725037657 -6.120157778714806
H 6.3215634786118144 1.827993790543151 -6.120157778714806
O -1.6522938097499054 -0.6306024861475674 -6.807075951723179
H -0.7522938097499053 -0.6306024861475674 -6.807075951723179
H -1.9453051487613464 0.22036423189181775 -6.807075951723179
O 2.1402502748760384 3.9457987047807386 -7.493994124731553
H 3.0402502748760383 3.9457987047807386 -7.493994124731553
H 1.8472389358645973 4.7967654228201235 -7.493994124731553
