109
Molecule with added oxygen and hydrogen atoms
  Fe         -0.78346281824074      0.71382159286128      0.03190735504285
  O          -1.30900217952042      2.65401547195505     -0.29726416029966
  H          -1.41985657065071      3.08378470888205     -1.16399730733730
  O           1.18173848991477      1.25002276750806      0.04373303851381
  H           1.94347708613033      0.65763073515390      0.17408334072539
  O          -0.88515643156864      1.02340941954120      2.04265980172823
  H          -1.67177229372797      0.91009543020448      2.60527966279891
  O          -0.25824147483086     -1.22724661589355      0.36008890162925
  H          -0.06821141650169     -1.89846104419402     -0.31927450721057
  O          -2.74951646106547      0.17566143984106      0.02204527618019
  H          -3.51142124837789      0.76712097009303     -0.11135681200604
  O          -0.68701544227484      0.40235729449432     -1.97911157954478
  H           0.09618718967077      0.51816546619639     -2.54601437304865
  H          -1.41412627566524      0.10487064807236     -2.55437983889548
  H           1.53703861418740      2.14870460458926     -0.07592686533040
  H          -1.50140513057677      3.32578513520059      0.38088279602331
  H          -3.10421384017261     -0.72306118200149      0.14292535211851
  H          -0.16036501774745      1.31846368813623      2.62212106598476
  H          -0.14619234898194     -1.65906076064025      1.22564426292768
O 1.0136201070317457 0.7129515668421025 4.156791863684211
H 1.9136201070317456 0.7129515668421025 4.156791863684211
H 0.7206087680203046 1.5639182848814877 4.156791863684211
O -2.9795732246137097 -1.2976251812684576 3.406791863684211
H -2.0795732246137097 -1.2976251812684576 3.406791863684211
H -3.2725845636251507 -0.44665846322907243 3.406791863684211
O -0.46527150448723414 4.354004417178513 2.6567918636842105
H 0.4347284955127659 4.354004417178513 2.6567918636842105
H -0.7582828434986751 5.204971135217898 2.6567918636842105
O 1.7041649259551983 -2.5334842318327992 1.906791863684211
H 2.604164925955198 -2.5334842318327992 1.906791863684211
H 1.4111535869437573 -1.682517513793414 1.906791863684211
O -5.075318009799604 1.4718808339997442 1.156791863684211
H -4.175318009799604 1.4718808339997442 1.156791863684211
H -5.368329348811045 2.3228475520391294 1.156791863684211
O 2.998875467816629 3.1198268173830606 0.4067918636842113
H 3.898875467816629 3.1198268173830606 0.4067918636842113
H 2.705864128805188 3.9707935354224455 0.4067918636842113
O -1.948972702226886 -3.617650681756313 -0.3432081363157888
H -1.048972702226886 -3.617650681756313 -0.3432081363157888
H -2.241984041238327 -2.766683963716928 -0.3432081363157888
O -2.793037598933512 4.579658677312512 -1.0932081363157886
H -1.8930375989335122 4.579658677312512 -1.0932081363157886
H -3.086048937944953 5.430625395351897 -1.0932081363157886
O 3.057727887569301 -0.6903395588095633 -1.8432081363157897
H 3.957727887569301 -0.6903395588095633 -1.8432081363157897
H 2.76471654855786 0.16062715922982185 -1.8432081363157897
O -4.163343978915511 -0.6816553747887821 -2.593208136315788
H -3.2633439789155108 -0.6816553747887821 -2.593208136315788
H -4.456355317926952 0.16931134325060304 -2.593208136315788
O 0.4767482700129292 3.4088426608185034 -3.343208136315789
H 1.3767482700129292 3.4088426608185034 -3.343208136315789
H 0.1837369310014882 4.259809378857889 -3.343208136315789
O -0.24657359238921273 -1.0030523206278663 -4.093208136315789
H 0.6534264076107873 -1.0030523206278663 -4.093208136315789
H -0.5395849314006538 -0.15208560258848114 -4.093208136315789
O 1.5383527712229594 0.8586864229059006 6.1706807525731
H 2.4383527712229593 0.8586864229059006 6.1706807525731
H 1.2453414322115184 1.7096531409452858 6.1706807525731
O -3.247383265067822 -1.5683570873190167 5.448458530350878
H -2.347383265067822 -1.5683570873190167 5.448458530350878
H -3.540394604079263 -0.7173903692796315 5.448458530350878
O -0.20496105503250028 5.337269276669328 4.726236308128656
H 0.6950389449674997 5.337269276669328 4.726236308128656
H -0.4979723940439413 6.188235994708713 4.726236308128656
O 2.532433733345356 -3.224422267449898 4.004014085906434
H 3.432433733345356 -3.224422267449898 4.004014085906434
H 2.239422394333915 -2.3734555494105125 4.004014085906434
O -6.141124181933915 1.8391853833157499 3.2817918636842123
H -5.241124181933914 1.8391853833157499 3.2817918636842123
H -6.434135520945356 2.6901521013551353 3.2817918636842123
O 4.4546929135744415 4.072802026413553 2.559569641461989
H 5.354692913574442 4.072802026413553 2.559569641461989
H 4.1616815745630005 4.923768744452938 2.559569641461989
O -2.219029232449728 -5.17142665646629 1.8373474192397672
H -1.319029232449728 -5.17142665646629 1.8373474192397672
H -2.512040571461169 -4.320459938426905 1.8373474192397672
O -3.5520023310357436 6.546420109607386 1.115125197017545
H -2.6520023310357437 6.546420109607386 1.115125197017545
H -3.8450136700471846 7.397386827646771 1.115125197017545
O 5.4981495676107714 -1.3676210446772785 0.3929029747953231
H 6.398149567610772 -1.3676210446772785 0.3929029747953231
H 5.20513822859933 -0.5166543266378933 0.3929029747953231
O -6.596976337453514 -1.6175999339029534 -0.32931924742689905
H -5.696976337453513 -1.6175999339029534 -0.32931924742689905
H -6.889987676464955 -0.7666332158635683 -0.32931924742689905
O 2.1184562433141867 6.663615659859795 -1.0515414696491212
H 3.0184562433141866 6.663615659859795 -1.0515414696491212
H 1.8254449043027456 7.51458237789918 -1.0515414696491212
O 1.2707773878520356 -5.099300248737853 -1.7737636918713433
H 2.1707773878520356 -5.099300248737853 -1.7737636918713433
H 0.9777660488405946 -4.248333530698468 -1.7737636918713433
O -5.77919719393693 3.861290670383551 -2.495985914093566
H -4.87919719393693 3.861290670383551 -2.495985914093566
H -6.0722085329483715 4.712257388422936 -2.495985914093566
O 4.899859830274231 2.0673775444386138 -3.2182081363157895
H 5.799859830274231 2.0673775444386138 -3.2182081363157895
H 4.60684849126279 2.9183442624779987 -3.2182081363157895
O -3.5570740741347118 -3.3502786173212002 -3.9404303585380105
H -2.657074074134712 -3.3502786173212002 -3.9404303585380105
H -3.850085413146153 -2.499311899281815 -3.9404303585380105
O -1.175767356242181 5.317204906712833 -4.662652580760233
H -0.27576735624218107 5.317204906712833 -4.662652580760233
H -1.4687786952536221 6.168171624752218 -4.662652580760233
O 2.1493822594298635 -1.456818153221561 -5.384874802982455
H 3.0493822594298634 -1.456818153221561 -5.384874802982455
H 1.8563709204184224 -0.6058514351821758 -5.384874802982455
O -2.732547178679434 0.7704165831497113 -6.107097025204677
H -1.8325471786794343 0.7704165831497113 -6.107097025204677
H -3.0255585176908752 1.6213833011890966 -6.107097025204677
