181
Molecule with added oxygen and hydrogen atoms
Cr         0.00001        0.00005        0.00005
O         -0.31195        1.97531       -0.15175
H         -0.98260        2.40841       -0.71267
O          1.48242        0.33502        1.30872
H          1.38932        0.39316        2.27824
O         -1.31492       -0.09171        1.51148
H         -1.56390       -0.89450        2.00665
O          0.31189       -1.97528        0.15186
H         -0.18433       -2.67148       -0.31837
O         -1.48223       -0.33446       -1.30885
H         -1.38859       -0.39311       -2.27829
O          1.31468        0.09111       -1.51169
H          1.56936        0.89511       -2.00233
H          1.81122       -0.66110       -1.88538
H          2.42337        0.46731        1.08690
H          0.17978        2.67128        0.32344
H         -2.42321       -0.46698       -1.08743
H         -1.81617        0.65903        1.88172
H          0.98646       -2.40825        0.70819
O 1.7984689265054281 -5.6842105263109565e-05 4.125025789473685
H 2.698468926505428 -5.6842105263109565e-05 4.125025789473685
H 1.505457587493987 0.850909875934122 4.125025789473685
O -2.194724405140027 -2.010633590215823 3.375025789473684
H -1.2947244051400273 -2.010633590215823 3.375025789473684
H -2.4877357441514683 -1.159666872176438 3.375025789473684
O 0.3195773149864483 3.640996008231147 2.6250257894736837
H 1.2195773149864484 3.640996008231147 2.6250257894736837
H 0.026565975975007317 4.491962726270533 2.6250257894736837
O 2.4890137454288808 -3.246492640780165 1.8750257894736841
H 3.3890137454288807 -3.246492640780165 1.8750257894736841
H 2.1960024064174397 -2.39552592274078 1.8750257894736841
O -4.290469190325921 0.7588724250523786 1.1250257894736841
H -3.390469190325921 0.7588724250523786 1.1250257894736841
H -4.583480529337362 1.6098391430917638 1.1250257894736841
O 3.7837242872903114 2.406818408435695 0.3750257894736845
H 4.683724287290311 2.406818408435695 0.3750257894736845
H 3.4907129482788704 3.2577851264750803 0.3750257894736845
O -1.1641238827532034 -4.330659090703678 -0.3749742105263156
H -0.2641238827532034 -4.330659090703678 -0.3749742105263156
H -1.4571352217646445 -3.479692372664293 -0.3749742105263156
O -2.0081887794598297 3.866650268365147 -1.1249742105263154
H -1.1081887794598297 3.866650268365147 -1.1249742105263154
H -2.3012001184712707 4.717616986404532 -1.1249742105263154
O 3.8425767070429835 -1.403347967756929 -1.8749742105263165
H 4.742576707042984 -1.403347967756929 -1.8749742105263165
H 3.5495653680315424 -0.5523812497175438 -1.8749742105263165
O -3.378495159441828 -1.3946637837361477 -2.624974210526315
H -2.4784951594418283 -1.3946637837361477 -2.624974210526315
H -3.6715064984532693 -0.5436970656967626 -2.624974210526315
O 1.2615970894866115 2.695834251871138 -3.374974210526316
H 2.1615970894866114 2.695834251871138 -3.374974210526316
H 0.9685857504751705 3.5468009699105227 -3.374974210526316
O 0.5382752270844697 -1.716060729575232 -4.124974210526315
H 1.4382752270844699 -1.716060729575232 -4.124974210526315
H 0.24526388807302874 -0.8650940115358468 -4.124974210526315
O 2.323201590696642 0.14567801395853502 6.138914678362572
H 3.223201590696642 0.14567801395853502 6.138914678362572
H 2.030190251685201 0.9966447319979201 6.138914678362572
O -2.4625344455941396 -2.2813654962663823 5.416692456140351
H -1.5625344455941397 -2.2813654962663823 5.416692456140351
H -2.7555457846055806 -1.4303987782269971 5.416692456140351
O 0.5798877644411822 4.624260867721963 4.694470233918128
H 1.479887764441182 4.624260867721963 4.694470233918128
H 0.2868764254297412 5.475227585761348 4.694470233918128
O 3.3172825528190386 -3.9374306763972635 3.9722480116959056
H 4.2172825528190385 -3.9374306763972635 3.9722480116959056
H 3.0242712138075976 -3.0864639583578786 3.9722480116959056
O -5.356275362460233 1.1261769743683843 3.250025789473684
H -4.456275362460232 1.1261769743683843 3.250025789473684
H -5.649286701471674 1.9771436924077694 3.250025789473684
O 5.2395417330481235 3.3597936174661873 2.527803567251461
H 6.139541733048124 3.3597936174661873 2.527803567251461
H 4.9465303940366825 4.210760335505572 2.527803567251461
O -1.4341804129760454 -5.884435065413655 1.805581345029239
H -0.5341804129760453 -5.884435065413655 1.805581345029239
H -1.7271917519874864 -5.03346834737427 1.805581345029239
O -2.767153511562061 5.83341170066002 1.083359122807017
H -1.8671535115620612 5.83341170066002 1.083359122807017
H -3.060164850573502 6.684378418699405 1.083359122807017
O 6.2829983870844535 -2.080629453624644 0.3611369005847949
H 7.182998387084454 -2.080629453624644 0.3611369005847949
H 5.989987048073012 -1.229662735585259 0.3611369005847949
O -5.812127517979832 -2.330608342850319 -0.36108532163742724
H -4.912127517979831 -2.330608342850319 -0.36108532163742724
H -6.105138856991273 -1.4796416248109339 -0.36108532163742724
O 2.903305062787869 5.95060725091243 -1.0833075438596493
H 3.803305062787869 5.95060725091243 -1.0833075438596493
H 2.610293723776428 6.801573968951815 -1.0833075438596493
O 2.055626207325718 -5.812308657685218 -1.8055297660818714
H 2.955626207325718 -5.812308657685218 -1.8055297660818714
H 1.762614868314277 -4.961341939645833 -1.8055297660818714
O -4.994348374463248 3.148282261436185 -2.527751988304094
H -4.094348374463248 3.148282261436185 -2.527751988304094
H -5.2873597134746895 3.9992489794755706 -2.527751988304094
O 5.684708649747913 1.3543691354912482 -3.2499742105263176
H 6.584708649747913 1.3543691354912482 -3.2499742105263176
H 5.391697310736472 2.2053358535306335 -3.2499742105263176
O -2.7722252546610293 -4.063287026268566 -3.9721964327485386
H -1.8722252546610294 -4.063287026268566 -3.9721964327485386
H -3.0652365936724704 -3.212320308229181 -3.9721964327485386
O -0.3909185367684985 4.604196497765467 -4.694418654970761
H 0.5090814632315015 4.604196497765467 -4.694418654970761
H -0.6839298757799395 5.455163215804852 -4.694418654970761
O 2.934231078903546 -2.1698265621689266 -5.416640877192982
H 3.834231078903546 -2.1698265621689266 -5.416640877192982
H 2.641219739892105 -1.3188598441295414 -5.416640877192982
O -1.9476983592057517 0.05740817420234577 -6.138863099415205
H -1.0476983592057518 0.05740817420234577 -6.138863099415205
H -2.240709698217193 0.908374892241731 -6.138863099415205
O 2.7156767158559862 0.25928964525093345 8.145859122807018
H 3.615676715855986 0.25928964525093345 8.145859122807018
H 2.422665376844545 1.1102563632903186 8.145859122807018
O -2.746673593145592 -2.5203831812111703 7.437525789473684
H -1.8466735931455922 -2.5203831812111703 7.437525789473684
H -3.039684932157033 -1.6694164631717852 7.437525789473684
O 0.7416431479802372 5.432508197869646 6.72919245614035
H 1.6416431479802371 5.432508197869646 6.72919245614035
H 0.44863180896879623 6.283474915909031 6.72919245614035
O 3.938243537406895 -4.502286158681855 6.020859122807017
H 4.838243537406895 -4.502286158681855 6.020859122807017
H 3.645232198395454 -3.65131944064247 6.020859122807017
O -6.246247225626229 1.4150409474441337 5.312525789473685
H -5.346247225626229 1.4150409474441337 5.312525789473685
H -6.53925856463767 2.266007665483519 5.312525789473685
O 6.316300821755456 4.0942350299210215 4.604192456140351
H 7.216300821755456 4.0942350299210215 4.604192456140351
H 6.023289482744015 4.9452017479604065 4.604192456140351
O -1.6735829199208292 -7.0363335079314595 3.895859122807016
H -0.7735829199208292 -7.0363335079314595 3.895859122807016
H -1.9665942589322702 -6.185366789892075 3.895859122807016
O -3.344181724867768 7.252126699741531 3.187525789473684
H -2.444181724867768 7.252126699741531 3.187525789473684
H -3.637193063879209 8.103093417780917 3.187525789473684
O 7.924709220733918 -2.529758568805995 2.4791924561403498
H 8.824709220733919 -2.529758568805995 2.4791924561403498
H 7.631697881722477 -1.6787918507666098 2.4791924561403498
O -7.396907011947713 -2.912776505794683 1.770859122807017
H -6.496907011947712 -2.912776505794683 1.770859122807017
H -7.689918350959154 -2.0618097877552977 1.770859122807017
O 3.8620665001804033 7.897647744850736 1.0625257894736841
H 4.762066500180404 7.897647744850736 1.0625257894736841
H 3.5690551611689623 8.74861446289012 1.0625257894736841
O 2.829336009036814 -7.844062045579478 0.35419245614035
H 3.729336009036814 -7.844062045579478 0.35419245614035
H 2.536324670025373 -6.993095327540093 0.35419245614035
O -7.060276194597196 4.517552856682406 -0.3541408771929841
H -6.160276194597196 4.517552856682406 -0.3541408771929841
H -7.353287533608637 5.368519574721791 -0.3541408771929841
O 8.52426373050463 2.0700899424847865 -1.0624742105263167
H 9.42426373050463 2.0700899424847865 -1.0624742105263167
H 8.23125239149319 2.9210566605241715 -1.0624742105263167
O -4.493701532376787 -6.541665827400732 -1.7708075438596493
H -3.593701532376787 -6.541665827400732 -1.7708075438596493
H -4.786712871388228 -5.690699109361347 -1.7708075438596493
O -0.7572135301250529 8.32229340729372 -2.4791408771929837
H 0.14278646987494714 8.32229340729372 -2.4791408771929837
H -1.050224869136494 9.173260125333107 -2.4791408771929837
O 6.3128453966779725 -4.818766265442814 -3.1874742105263167
H 7.212845396677973 -4.818766265442814 -3.1874742105263167
H 6.0198340576665315 -3.9677995474034287 -3.1874742105263167
O -7.260549563274434 -0.052851375887805696 -3.8958075438596484
H -6.360549563274434 -0.052851375887805696 -3.8958075438596484
H -7.553560902285875 0.7981153421515794 -3.8958075438596484
O 5.352249510856921 5.299260141721606 -4.604140877192984
H 6.252249510856921 5.299260141721606 -4.604140877192984
H 5.05923817184548 6.150226859760991 -4.604140877192984
O -0.018862202191850697 -6.368938234218954 -5.312474210526316
H 0.8811377978081494 -6.368938234218954 -5.312474210526316
H -0.3118735412032917 -5.5179715161795695 -5.312474210526316
O -3.5565993177010484 4.865964003217286 -6.020807543859651
H -2.6565993177010485 4.865964003217286 -6.020807543859651
H -3.8496106567124895 5.716930721256671 -6.020807543859651
O 5.434357651850776 -0.4331949610257376 -6.729140877192984
H 6.334357651850777 -0.4331949610257376 -6.729140877192984
H 5.141346312839335 0.41777175701364755 -6.729140877192984
O -3.0902364572420407 -2.0909435092371873 -7.437474210526316
H -2.1902364572420407 -2.0909435092371873 -7.437474210526316
H -3.3832477962534817 -1.2399767911978021 -7.437474210526316
O 0.8205428740305936 2.628130228532979 -8.145807543859648
H 1.7205428740305937 2.628130228532979 -8.145807543859648
H 0.5275315350191525 3.479096946572364 -8.145807543859648
