199
Molecule with added oxygen and hydrogen atoms
C          5.09951       -0.53683       -0.59731
C          5.12390        0.19498        0.59740
C          3.90834        0.62865        1.24110
C          2.63983        0.29339        0.62231
C          2.61440       -0.46930       -0.62240
C          3.85774       -0.88845       -1.24109
O          1.35090       -0.70608       -1.06741
O          1.39492        0.61399        1.06719
H          6.05286       -0.85236       -1.05642
H          6.09615        0.44623        1.05656
H          3.94930        1.20451        2.17420
H          3.86026       -1.46571       -2.17422
Fe         0.03589       -0.00135       -0.00007
C         -2.09382        4.64225       -0.67673
C         -2.69250        4.38168        0.57008
C         -2.43721        3.12905        1.26367
C         -1.56296        2.16339        0.67852
C         -0.93007        2.45357       -0.63088
C         -1.22179        3.70256       -1.29997
O         -0.13092        1.44707       -1.05723
O         -1.23194        0.95261        1.16805
H         -2.30084        5.60031       -1.18574
H         -3.35853        5.13154        1.02621
H         -2.93418        2.92486        2.22194
H         -0.77260        3.93231       -2.27590
C         -2.98103       -4.19123       -0.56958
C         -2.40053       -4.49167        0.67684
C         -1.46694       -3.61286        1.29971
C         -1.09232       -2.38615        0.63063
C         -1.70496       -2.05387       -0.67835
C         -2.64246       -2.95850       -1.26317
O         -1.29353       -0.86799       -1.16787
O         -0.22718       -1.43568        1.05674
H         -3.69624       -4.89452       -1.02543
H         -2.67124       -5.43372        1.18585
H         -1.03373       -3.87242        2.27539
H         -3.12509       -2.72119       -2.22114
O 2.308955337317924 8.297297297307246e-05 7.574061800417966
H 3.208955337317924 8.297297297307246e-05 7.574061800417966
H 2.015943998306483 0.8510496910123583 7.574061800417966
O -2.8837611253327164 -2.6412176781273993 6.885514364016332
H -1.9837611253327165 -2.6412176781273993 6.885514364016332
H -3.1767724643441575 -1.790250960088014 6.885514364016332
O 0.43044023634965495 4.910458572081542 6.1969669276146995
H 1.330440236349655 4.910458572081542 6.1969669276146995
H 0.13742889733821395 5.761425290120927 6.1969669276146995
O 3.460501321451451 -4.5141842516092465 5.508419491213066
H 4.360501321451451 -4.5141842516092465 5.508419491213066
H 3.16748998244001 -3.6632175335698616 5.508419491213066
O -6.186872703870584 1.0943646717253148 4.819872054811433
H -5.286872703870584 1.0943646717253148 4.819872054811433
H -6.479884042882025 1.9453313897647 4.819872054811433
O 5.699180601801377 3.6257551133238315 4.1313246184098
H 6.599180601801377 3.6257551133238315 4.1313246184098
H 5.406169262789936 4.476721831363217 4.1313246184098
O -1.8516648848925814 -6.88614706904965 3.442777182008166
H -0.9516648848925814 -6.88614706904965 3.442777182008166
H -2.1446762239040225 -6.035180351010265 3.442777182008166
O -3.4222167130472974 6.58838456339525 2.754229745606532
H -2.5222167130472974 6.58838456339525 2.754229745606532
H -3.7152280520587384 7.439351281434635 2.754229745606532
O 7.17977898190351 -2.6221444807533563 2.065682309204901
H 8.07977898190351 -2.6221444807533563 2.065682309204901
H 6.886767642892069 -1.771177762713971 2.065682309204901
O -7.208206427325157 -2.975152235476409 1.3771348728032673
H -6.308206427325157 -2.975152235476409 1.3771348728032673
H -7.501217766336598 -2.1241855174370237 1.3771348728032673
O 3.342922181166962 7.14478832635651 0.6885874364016349
H 4.242922181166962 7.14478832635651 0.6885874364016349
H 3.049910842155521 7.995755044395895 0.6885874364016349
O 2.3693151096556537 -7.555270504887918 4.000000000048285e-05
H 3.2693151096556536 -7.555270504887918 4.000000000048285e-05
H 2.0763037706442127 -6.704303786848533 4.000000000048285e-05
O -6.825550174387996 3.955337332234838 -0.6885074364016321
H -5.925550174387996 3.955337332234838 -0.6885074364016321
H -7.118561513399437 4.806304050274223 -0.6885074364016321
O 7.61525208812715 1.6743853592834923 -1.3770548728032663
H 8.51525208812715 1.6743853592834923 -1.3770548728032663
H 7.322240749115709 2.5253520773228777 -1.3770548728032663
O -4.396859659370933 -6.253282013701393 -2.0656023092049005
H -3.496859659370933 -6.253282013701393 -2.0656023092049005
H -4.689870998382374 -5.402315295662008 -2.0656023092049005
O -0.9545496015853475 7.362394960100895 -2.7541497456065316
H -0.054549601585347496 7.362394960100895 -2.7541497456065316
H -1.2475609405967885 8.21336167814028 -2.7541497456065316
O 5.451984022236586 -4.595278838992153 -3.4426971820081653
H 6.351984022236587 -4.595278838992153 -3.4426971820081653
H 5.158972683225145 -3.7443121209527677 -3.4426971820081653
O -6.74987259214922 -0.27902465073078697 -4.1312446184097995
H -5.84987259214922 -0.27902465073078697 -4.1312446184097995
H -7.042883931160661 0.5719420673085982 -4.1312446184097995
O 4.452651064632169 4.431566020548753 -4.8197920548114315
H 5.35265106463217 4.431566020548753 -4.8197920548114315
H 4.159639725620728 5.282532738588138 -4.8197920548114315
O -0.2632554087856776 -5.682180700813741 -5.508339491213063
H 0.6367445912143224 -5.682180700813741 -5.508339491213063
H -0.5562667477971186 -4.831213982774356 -5.508339491213063
O -3.1587182015787256 3.7846803285426294 -6.196886927614699
H -2.2587182015787257 3.7846803285426294 -6.196886927614699
H -3.4517295405901667 4.635647046582014 -6.196886927614699
O 3.8747744475554122 -0.5213301229452367 -6.885434364016334
H 4.774774447555412 -0.5213301229452367 -6.885434364016334
H 3.581763108543971 0.32963659509414844 -6.885434364016334
O -1.8962410808504473 -1.318922225391623 -7.573981800417965
H -0.9962410808504473 -1.318922225391623 -7.573981800417965
H -2.189252419861888 -0.4679555073522379 -7.573981800417965
O 2.761733529738953 0.14867447980346418 10.060755183060257
H 3.661733529738953 0.14867447980346418 10.060755183060257
H 2.468722190727512 0.9996411978428493 10.060755183060257
O -3.1473619875528915 -2.865118008638613 9.390040837522905
H -2.2473619875528916 -2.865118008638613 9.390040837522905
H -3.4403733265643326 -2.0141512905992283 9.390040837522905
O 0.6374693312935646 5.788477582364994 8.719326491985555
H 1.5374693312935648 5.788477582364994 8.719326491985555
H 0.34445799228212365 6.639444300404379 8.719326491985555
O 4.146149260824728 -5.073363603238777 8.048612146448205
H 5.046149260824729 -5.073363603238777 8.048612146448205
H 3.8531379218132873 -4.222396885199392 8.048612146448205
O -7.069837739071611 1.4244372915016106 7.377897800910856
H -6.16983773907161 1.4244372915016106 7.377897800910856
H -7.362849078083052 2.2754040095409955 7.377897800910856
O 6.844527532136054 4.411949259381632 6.707183455373505
H 7.744527532136054 4.411949259381632 6.707183455373505
H 6.551516193124613 5.262915977421017 6.707183455373505
O -2.054788961328531 -8.025169173854692 6.036469109836154
H -1.154788961328531 -8.025169173854692 6.036469109836154
H -2.347800300339972 -7.1742024558153075 6.036469109836154
O -3.9615665793909014 8.050824733347914 5.365754764298804
H -3.0615665793909015 8.050824733347914 5.365754764298804
H -4.254577918402342 8.9017914513873 5.365754764298804
O 8.855204774373991 -3.0331875756358935 4.6950404187614545
H 9.755204774373992 -3.0331875756358935 4.6950404187614545
H 8.56219343536255 -2.1822208575965085 4.6950404187614545
O -8.717882725743966 -3.5087669504350774 4.024326073224104
H -7.817882725743965 -3.5087669504350774 4.024326073224104
H -9.010894064755407 -2.657800232395692 4.024326073224104
O 4.3132900579921465 9.061388608327546 3.3536117276867525
H 5.213290057992147 9.061388608327546 3.3536117276867525
H 4.020278718980705 9.912355326366932 3.3536117276867525
O 3.1484974604005607 -9.434886328413844 2.6828973821494033
H 4.048497460400561 -9.434886328413844 2.6828973821494033
H 2.8554861213891196 -8.583919610374458 2.6828973821494033
O -8.682202995694787 5.262776202783134 2.0121830366120537
H -7.782202995694787 5.262776202783134 2.0121830366120537
H -8.975214334706228 6.113742920822519 2.0121830366120537
O 10.211222289411225 2.3622525701569175 1.341468691074701
H 11.111222289411225 2.3622525701569175 1.341468691074701
H 9.918210950399784 3.213219288196303 1.341468691074701
O -5.8241204343818405 -8.3382437249862 0.6707543455373529
H -4.92412043438184 -8.3382437249862 0.6707543455373529
H -6.1171317733932815 -7.487277006946814 0.6707543455373529
O -1.1934961498380878 10.45854388962486 4.000000000136785e-05
H -0.2934961498380878 10.45854388962486 4.000000000136785e-05
H -1.4865074888495289 11.309510607664246 4.000000000136785e-05
O 8.07529540730273 -6.5370852238758514 -0.6706743455373481
H 8.975295407302731 -6.5370852238758514 -0.6706743455373481
H 7.78228406829129 -5.6861185058364665 -0.6706743455373481
O -10.157851564897522 -0.2772778209264989 -1.3413886910747006
H -9.257851564897521 -0.2772778209264989 -1.3413886910747006
H -10.450862903908963 0.5736888971128863 -1.3413886910747006
O 7.3722089614243815 7.343190294012178 -2.0121030366120514
H 8.272208961424381 7.343190294012178 -2.0121030366120514
H 7.0791976224129405 8.194157012051564 -2.0121030366120514
O -0.32143352353352883 -9.884538008827315 -2.6828173821494006
H 0.5785664764664712 -9.884538008827315 -2.6828173821494006
H -0.6144448625449699 -9.033571290787929 -2.6828173821494006
O -6.162272062675815 7.703910856567382 -3.3535317276867507
H -5.262272062675815 7.703910856567382 -3.3535317276867507
H -6.4552834016872565 8.554877574606767 -3.3535317276867507
O 9.642490492068521 -1.1295344214215617 -4.024246073224101
H 10.542490492068522 -1.1295344214215617 -4.024246073224101
H 9.34947915305708 -0.2785677033821765 -4.024246073224101
O -7.471378536815955 -5.148871044637743 -4.694960418761453
H -6.5713785368159545 -5.148871044637743 -4.694960418761453
H -7.764389875827396 -4.297904326598358 -4.694960418761453
O 2.0968489213390042 8.835905682553898 -5.3656747642988
H 2.996848921339004 8.835905682553898 -5.3656747642988
H 1.8038375823275632 9.686872400593284 -5.3656747642988
O 4.350665301291348 -7.195117139294247 -6.0363891098361515
H 5.250665301291348 -7.195117139294247 -6.0363891098361515
H 4.057653962279907 -6.344150421254862 -6.0363891098361515
O -7.4248062966853485 2.562854864070161 -6.707103455373505
H -6.524806296685348 2.562854864070161 -6.707103455373505
H -7.71781763569679 3.413821582109546 -6.707103455373505
O 6.791455055627182 3.220655610164662 -7.3778178009108535
H 7.691455055627182 3.220655610164662 -7.3778178009108535
H 6.498443716615741 4.071622328204048 -7.3778178009108535
O -2.397842246786476 -5.921368013595275 -8.048532146448206
H -1.497842246786476 -5.921368013595275 -8.048532146448206
H -2.690853585797917 -5.07040129555589 -8.048532146448206
O -1.7736307617869604 5.476034708567669 -8.719246491985555
H -0.8736307617869604 5.476034708567669 -8.719246491985555
H -2.0666421007984015 6.327001426607054 -8.719246491985555
O 4.091904223671506 -1.9270162907920132 -9.389960837522906
H 4.991904223671506 -1.9270162907920132 -9.389960837522906
H 3.7988928846600647 -1.076049572752628 -9.389960837522906
O -2.390200039833604 -0.5189398323146854 -10.060675183060257
H -1.4902000398336042 -0.5189398323146854 -10.060675183060257
H -2.683211378845045 0.33202688572469974 -10.060675183060257
