241
Molecule with added oxygen and hydrogen atoms
C         -1.14429        3.59962       -1.73080
C         -0.59743        2.51442       -0.80841
C          0.00216        2.63195        0.52348
O          0.31288        1.36895        0.94993
C          0.29261        3.74598        1.34780
C          0.08893        5.15480        1.13180
N         -0.44323        5.73412        0.03952
C         -0.51129        7.24368        0.14969
O         -0.61742        1.23505       -1.17726
H         -2.22297        3.44538       -1.90502
H         -0.96030        4.57983       -1.21476
H         -0.63401        3.56276       -2.70792
H          0.75368        3.48081        2.30592
H          0.42532        5.78254        1.98549
H         -1.56452        7.57244        0.04803
H         -0.11173        7.65095        1.10038
H          0.05481        7.69889       -0.68694
Fe         0.00066       -0.00352       -0.12861
C          3.69135       -0.81568       -1.73453
C          2.47971       -0.74468       -0.81017
C          2.28406       -1.31926        0.52358
O          1.03490       -0.95741        0.95059
C          3.10597       -2.12419        1.34913
C          4.42928       -2.64902        1.13373
N          5.19636       -2.47779        0.04096
C          6.53989       -3.16920        0.15232
O          1.38074       -0.08946       -1.17919
H          4.09389        0.19568       -1.91552
H          4.45097       -1.46022       -1.21633
H          3.40351       -1.24572       -2.70857
H          2.64721       -2.38956        2.30830
H          4.80675       -3.25127        1.98862
H          7.34884       -2.41906        0.04920
H          6.69466       -3.71658        1.10403
H          6.65331       -3.88825       -0.68298
C         -2.55271       -2.79358       -1.72746
C         -1.88397       -1.77805       -0.80605
C         -2.28324       -1.31717        0.52638
O         -1.34207       -0.41925        0.95251
C         -3.39343       -1.62015        1.35138
C         -4.51570       -2.49558        1.13444
N         -4.75574       -3.24252        0.04065
C         -6.03317       -4.04990        0.14979
O         -0.76530       -1.15759       -1.17602
H         -2.77182       -2.33464       -2.70614
H         -1.88313       -3.65397       -1.89814
H         -3.49596       -3.11929       -1.21250
H         -3.39169       -1.08957        2.31021
H         -5.22705       -2.51664        1.98859
H         -6.58374       -3.90760        1.10160
H         -6.71008       -3.78095       -0.68515
H         -5.79713       -5.12733        0.04435
O 2.500716308498249 0.0014076923076922381 9.06659797044226
H 3.400716308498249 0.0014076923076922381 9.06659797044226
H 2.207704969486808 0.8523744103470774 9.06659797044226
O -3.1361044954193997 -2.8711567785090253 8.392097736164486
H -2.2361044954194 -2.8711567785090253 8.392097736164486
H -3.429115834430841 -2.0201900604696403 8.392097736164486
O 0.4704295873787993 5.366239510630576 7.7175975018867105
H 1.3704295873787993 5.366239510630576 7.7175975018867105
H 0.1774182483673583 6.217206228669961 7.7175975018867105
O 3.799887030773183 -4.955390520567456 7.043097267608936
H 4.6998870307731835 -4.955390520567456 7.043097267608936
H 3.506875691761742 -4.104423802528071 7.043097267608936
O -6.830577960587008 1.2095704440208435 6.368597033331162
H -5.930577960587008 1.2095704440208435 6.368597033331162
H -7.123589299598449 2.0605371620602284 6.368597033331162
O 6.330586556546419 4.0286615238038666 5.694096799053389
H 7.230586556546419 4.0286615238038666 5.694096799053389
H 6.037575217534978 4.8796282418432515 5.694096799053389
O -2.070395391244839 -7.698881285025551 5.019596564775614
H -1.1703953912448393 -7.698881285025551 5.019596564775614
H -2.3634067302562802 -6.847914566986166 5.019596564775614
O -3.8552076546115006 7.423610074395694 4.34509633049784
H -2.9552076546115007 7.423610074395694 4.34509633049784
H -4.148218993622941 8.274576792435079 4.34509633049784
O 8.156463134968575 -2.97746472908904 3.6705960962200668
H 9.056463134968576 -2.97746472908904 3.6705960962200668
H 7.863451795957134 -2.126498011049655 3.6705960962200668
O -8.265802324031917 -3.410431265869503 2.996095861942292
H -7.365802324031916 -3.410431265869503 2.996095861942292
H -8.558813663043358 -2.5594645478301175 2.996095861942292
O 3.8748894206027225 8.282670747723657 2.321595627664517
H 4.774889420602722 8.282670747723657 2.321595627664517
H 3.5818780815912814 9.133637465763043 2.321595627664517
O 2.780316350752289 -8.863946242334224 1.6470953933867438
H 3.680316350752289 -8.863946242334224 1.6470953933867438
H 2.487305011740848 -8.012979524294838 1.6470953933867438
O -8.12355919251102 4.708945933014941 0.972595159108969
H -7.22355919251102 4.708945933014941 0.972595159108969
H -8.416570531522462 5.559912651054326 0.972595159108969
O 9.21647129948618 2.027710442525279 0.2980949248311946
H 10.11647129948618 2.027710442525279 0.2980949248311946
H 8.923459960474739 2.8786771605646644 0.2980949248311946
O -5.427881865064694 -7.718630310802104 -0.3764053094465802
H -4.5278818650646935 -7.718630310802104 -0.3764053094465802
H -5.720893204076135 -6.867663592762719 -0.3764053094465802
O -1.2069388631786622 9.312204119538748 -1.0509055437243544
H -0.30693886317866215 9.312204119538748 -1.0509055437243544
H -1.4999502021901032 10.163170837578134 -1.0509055437243544
O 7.104128688113885 -5.986294500407016 -1.7254057780021272
H 8.004128688113886 -5.986294500407016 -1.7254057780021272
H 6.811117349102444 -5.135327782367631 -1.7254057780021272
O -9.135738355181287 -0.37636733286935786 -2.399906012279901
H -8.235738355181287 -0.37636733286935786 -2.399906012279901
H -9.428749694192728 0.4745993851700273 -2.399906012279901
O 6.33788369959699 6.308844050805578 -3.074406246557676
H 7.23788369959699 6.308844050805578 -3.074406246557676
H 6.044872360585549 7.159810768844963 -3.074406246557676
O -0.40151391089982946 -8.673104509895085 -3.748906480835449
H 0.49848608910017056 -8.673104509895085 -3.748906480835449
H -0.6945252499112704 -7.8221377918557 -3.748906480835449
O -5.358988247655404 6.422790310397868 -4.423406715113224
H -4.4589882476554035 6.422790310397868 -4.423406715113224
H -5.651999586666845 7.273757028437253 -4.423406715113224
O 7.902058490525121 -1.0618565843477048 -5.0979069493910005
H 8.802058490525122 -1.0618565843477048 -5.0979069493910005
H 7.60904715151368 -0.21088986630831963 -5.0979069493910005
O -6.159577864218997 -4.283989580824022 -5.772407183668771
H -5.259577864218997 -4.283989580824022 -5.772407183668771
H -6.452589203230438 -3.433022862784637 -5.772407183668771
O 1.5219715769396187 6.7684908713730785 -6.446907417946546
H 2.421971576939619 6.7684908713730785 -6.446907417946546
H 1.2289602379281777 7.619457589412463 -6.446907417946546
O 3.1049741475096946 -5.417879896373974 -7.121407652224321
H 4.004974147509695 -5.417879896373974 -7.121407652224321
H 2.8119628084982535 -4.566913178334589 -7.121407652224321
O -5.13107919473588 1.6382350907835999 -7.795907886502094
H -4.231079194735879 1.6382350907835999 -7.795907886502094
H -5.424090533747321 2.489201808822985 -7.795907886502094
O 3.8600407319184216 1.7850280716662785 -8.47040812077987
H 4.760040731918422 1.7850280716662785 -8.47040812077987
H 3.5670293929069805 2.6359947897056637 -8.47040812077987
O -0.9659802036253947 -2.3058028151059897 -9.144908355057643
H -0.0659802036253947 -2.3058028151059897 -9.144908355057643
H -1.2589915426368357 -1.4548360970666045 -9.144908355057643
O 2.968938777008168 0.14669048307357144 11.521686281997267
H 3.868938777008168 0.14669048307357144 11.521686281997267
H 2.675927437996727 0.9976572011129566 11.521686281997267
O -3.410140401508519 -3.1096339734642457 10.84163678350874
H -2.510140401508519 -3.1096339734642457 10.84163678350874
H -3.70315174051996 -2.258667255424861 10.84163678350874
O 0.6803905745258947 6.253102751889963 10.161587285020213
H 1.5803905745258948 6.253102751889963 10.161587285020213
H 0.3873792355144537 7.104069469929348 10.161587285020213
O 4.489050774783888 -5.5200313425448115 9.481537786531685
H 5.389050774783889 -5.5200313425448115 9.481537786531685
H 4.196039435772447 -4.669064624505427 9.481537786531685
O -7.700765290966659 1.5344041019537835 8.801488288043158
H -6.800765290966659 1.5344041019537835 8.801488288043158
H -7.9937766299781 2.3853708199931685 8.801488288043158
O 7.453336797203847 4.795986220390675 8.121438789554631
H 8.353336797203847 4.795986220390675 8.121438789554631
H 7.160325458192406 5.64695293843006 8.121438789554631
O -2.2583958220446783 -8.79189182577836 7.441389291066105
H -1.3583958220446783 -8.79189182577836 7.441389291066105
H -2.5514071610561193 -7.940925107738974 7.441389291066105
O -4.35695233514738 8.813926607224083 6.761339792577577
H -3.45695233514738 8.813926607224083 6.761339792577577
H -4.649963674158821 9.664893325263469 6.761339792577577
O 9.73157745851451 -3.3545017376147035 6.08129029408905
H 10.63157745851451 -3.3545017376147035 6.08129029408905
H 9.438566119503069 -2.5035350195753185 6.08129029408905
O -9.639301097201763 -3.8919125744188947 5.401240795600524
H -8.739301097201762 -3.8919125744188947 5.401240795600524
H -9.932312436213204 -3.0409458563795093 5.401240795600524
O 4.767506700894118 10.025827706984003 4.721191297111997
H 5.667506700894118 10.025827706984003 4.721191297111997
H 4.474495361882677 10.87679442502339 4.721191297111997
O 3.490332714491534 -10.52041175619275 4.04114179862347
H 4.390332714491534 -10.52041175619275 4.04114179862347
H 3.197321375480093 -9.669445038153365 4.04114179862347
O -9.723059651259385 5.865132032926217 3.3610923001349415
H -8.823059651259385 5.865132032926217 3.3610923001349415
H -10.016070990270826 6.716098750965602 3.3610923001349415
O 11.460067196031037 2.6343903477591493 2.6810428016464156
H 12.360067196031038 2.6343903477591493 2.6810428016464156
H 11.167055857019596 3.485357065798534 2.6810428016464156
O -6.598734544134469 -9.444839844295469 2.0009933031578875
H -5.698734544134469 -9.444839844295469 2.0009933031578875
H -6.89174588314591 -8.593873126256083 2.0009933031578875
O -1.3748867750886586 11.871547365239087 1.3209438046693622
H -0.4748867750886586 11.871547365239087 1.3209438046693622
H -1.6678981141000997 12.722514083278472 1.3209438046693622
O 9.22959721671928 -7.510255014320283 0.6408943061808345
H 10.129597216719281 -7.510255014320283 0.6408943061808345
H 8.93658587770784 -6.659288296280898 0.6408943061808345
O -11.746222445574722 -0.3450274391492354 -0.03915519230769172
H -10.846222445574721 -0.3450274391492354 -0.03915519230769172
H -12.039233784586163 0.5059392788901498 -0.03915519230769172
O 8.566381309244282 8.527606071189709 -0.7192046907962181
H 9.466381309244282 8.527606071189709 -0.7192046907962181
H 8.27336997023284 9.378572789229095 -0.7192046907962181
O -0.4016353417015972 -11.663580658697208 -1.3992541892847459
H 0.4983646582984028 -11.663580658697208 -1.3992541892847459
H -0.6946466807130383 -10.812613940657823 -1.3992541892847459
O -7.367636537367839 9.148718025565175 -2.079303687773274
H -6.467636537367839 9.148718025565175 -2.079303687773274
H -7.66064787637928 9.999684743604561 -2.079303687773274
O 11.626829254842736 -1.3982432236189193 -2.7593531862618015
H 12.526829254842736 -1.3982432236189193 -2.7593531862618015
H 11.333817915831295 -0.5472765055795341 -2.7593531862618015
O -9.21722503667508 -6.3669407951088735 -3.439402684750328
H -8.31722503667508 -6.3669407951088735 -3.439402684750328
H -9.510236375686521 -5.5159740770694885 -3.439402684750328
O 2.598178673993959 11.053622290805661 -4.119452183238854
H 3.498178673993959 11.053622290805661 -4.119452183238854
H 2.305167334982518 11.904589008845047 -4.119452183238854
O 5.567394001126701 -9.317015642525316 -4.799501681727379
H 6.467394001126701 -9.317015642525316 -4.799501681727379
H 5.27438266211526 -8.46604892448593 -4.799501681727379
O -9.93934368880013 3.363705618020794 -5.479551180215907
H -9.03934368880013 3.363705618020794 -5.479551180215907
H -10.232355027811572 4.214672336060179 -5.479551180215907
O 9.409767753817416 4.427487930804798 -6.159600678704433
H 10.309767753817416 4.427487930804798 -6.159600678704433
H 9.116756414805975 5.278454648844183 -6.159600678704433
O -3.62597188007931 -8.862614112732226 -6.839650177192962
H -2.7259718800793102 -8.862614112732226 -6.839650177192962
H -3.918983219090751 -8.01164739469284 -6.839650177192962
O -2.988206435247737 8.85635982403712 -7.51969967568149
H -2.088206435247737 8.85635982403712 -7.51969967568149
H -3.281217774259178 9.707326542076506 -7.51969967568149
O 7.812251487025297 -3.883274744291245 -8.199749174170016
H 8.712251487025297 -3.883274744291245 -8.199749174170016
H 7.519240148013856 -3.03230802625186 -8.199749174170016
O -7.559402371741296 -1.88402847124956 -8.879798672658543
H -6.659402371741296 -1.88402847124956 -8.879798672658543
H -7.852413710752737 -1.033061753210175 -8.879798672658543
O 4.00634362466054 6.152774046178758 -9.55984817114707
H 4.906343624660541 6.152774046178758 -9.55984817114707
H 3.7133322856490993 7.003740764218143 -9.55984817114707
O 1.1827372592542131 -5.8946250930466055 -10.239897669635598
H 2.082737259254213 -5.8946250930466055 -10.239897669635598
H 0.8897259202427721 -5.043658375007221 -10.239897669635598
O -3.6668624754872905 3.0984091594728422 -10.919947168124125
H -2.7668624754872906 3.0984091594728422 -10.919947168124125
H -3.9598738144987315 3.949375877512227 -10.919947168124125
O 2.9592951590068926 0.3798920756814671 -11.599996666612652
H 3.8592951590068925 0.3798920756814671 -11.599996666612652
H 2.6662838199954515 1.2308587937208522 -11.599996666612652
