109
Molecule with added oxygen and hydrogen atoms
Fe        -0.00025       -0.00003        0.00002
O         -0.09691        1.81472       -1.06251
H         -0.11013        1.90612       -2.01534
O          2.12450        0.09559       -0.02708
H          2.72070       -0.41329        0.52224
O         -0.02510        1.09020        1.76825
H         -0.80668        1.37811        2.24134
O          0.09692       -1.81480        1.06241
H          0.13188       -2.69268        0.68240
O         -2.12470       -0.09536        0.02707
H         -2.72073        0.41192       -0.52392
O          0.02593       -1.09030       -1.76818
H          0.80835       -1.37764       -2.24023
H         -0.73874       -1.45043       -2.21890
H          2.65975        0.65497       -0.58992
H         -0.13465        2.69252       -0.68256
H         -2.66017       -0.65294        0.59150
H          0.74043        1.44980        2.21793
H          0.11145       -1.90623        2.01521
O 1.7985341896633227 1.3157894736869872e-05 4.124985789473684
H 2.698534189663323 1.3157894736869872e-05 4.124985789473684
H 1.5055228506518816 0.850979875934122 4.124985789473684
O -2.1946591419821324 -2.010563590215823 3.3749857894736843
H -1.2946591419821325 -2.010563590215823 3.3749857894736843
H -2.4876704809935735 -1.159596872176438 3.3749857894736843
O 0.31964257814434305 3.6410660082311472 2.624985789473684
H 1.219642578144343 3.6410660082311472 2.624985789473684
H 0.02663123913290205 4.492032726270533 2.624985789473684
O 2.4890790085867756 -3.246422640780165 1.874985789473684
H 3.3890790085867755 -3.246422640780165 1.874985789473684
H 2.1960676695753345 -2.39545592274078 1.874985789473684
O -4.290403927168026 0.7589424250523786 1.124985789473684
H -3.3904039271680264 0.7589424250523786 1.124985789473684
H -4.583415266179467 1.6099091430917638 1.124985789473684
O 3.783789550448206 2.406888408435695 0.3749857894736845
H 4.683789550448206 2.406888408435695 0.3749857894736845
H 3.490778211436765 3.2578551264750804 0.3749857894736845
O -1.1640586195953089 -4.330589090703679 -0.37501421052631556
H -0.26405861959530885 -4.330589090703679 -0.37501421052631556
H -1.45706995860675 -3.479622372664294 -0.37501421052631556
O -2.008123516301935 3.866720268365147 -1.1250142105263155
H -1.108123516301935 3.866720268365147 -1.1250142105263155
H -2.301134855313376 4.717686986404532 -1.1250142105263155
O 3.8426419702008783 -1.403277967756929 -1.8750142105263166
H 4.742641970200879 -1.403277967756929 -1.8750142105263166
H 3.5496306311894372 -0.5523112497175438 -1.8750142105263166
O -3.3784298962839334 -1.3945937837361477 -2.625014210526315
H -2.4784298962839335 -1.3945937837361477 -2.625014210526315
H -3.6714412352953745 -0.5436270656967626 -2.625014210526315
O 1.2616623526445063 2.695904251871138 -3.3750142105263157
H 2.1616623526445062 2.695904251871138 -3.3750142105263157
H 0.9686510136330653 3.5468709699105228 -3.3750142105263157
O 0.5383404902423644 -1.715990729575232 -4.125014210526316
H 1.4383404902423644 -1.715990729575232 -4.125014210526316
H 0.24532915123092341 -0.8650240115358467 -4.125014210526316
O 2.3232668538545367 0.14574801395853496 6.138874678362572
H 3.2232668538545366 0.14574801395853496 6.138874678362572
H 2.0302555148430956 0.9967147319979202 6.138874678362572
O -2.462469182436245 -2.2812954962663823 5.41665245614035
H -1.5624691824362449 -2.2812954962663823 5.41665245614035
H -2.755480521447686 -1.430328778226997 5.41665245614035
O 0.5799530275990769 4.624330867721963 4.694430233918128
H 1.4799530275990769 4.624330867721963 4.694430233918128
H 0.28694168858763586 5.475297585761348 4.694430233918128
O 3.3173478159769334 -3.9373606763972635 3.972208011695906
H 4.217347815976933 -3.9373606763972635 3.972208011695906
H 3.0243364769654923 -3.0863939583578786 3.972208011695906
O -5.356210099302338 1.1262469743683843 3.2499857894736848
H -4.4562100993023375 1.1262469743683843 3.2499857894736848
H -5.649221438313779 1.9772136924077695 3.2499857894736848
O 5.239606996206018 3.3598636174661873 2.5277635672514616
H 6.139606996206019 3.3598636174661873 2.5277635672514616
H 4.946595657194577 4.210830335505572 2.5277635672514616
O -1.4341151498181506 -5.884365065413655 1.8055413450292395
H -0.5341151498181506 -5.884365065413655 1.8055413450292395
H -1.7271264888295916 -5.03339834737427 1.8055413450292395
O -2.7670882484041663 5.83348170066002 1.0833191228070174
H -1.8670882484041664 5.83348170066002 1.0833191228070174
H -3.0600995874156074 6.684448418699405 1.0833191228070174
O 6.283063650242348 -2.080559453624644 0.3610969005847954
H 7.183063650242349 -2.080559453624644 0.3610969005847954
H 5.990052311230907 -1.229592735585259 0.3610969005847954
O -5.812062254821937 -2.330538342850319 -0.3611253216374268
H -4.912062254821937 -2.330538342850319 -0.3611253216374268
H -6.105073593833378 -1.4795716248109338 -0.3611253216374268
O 2.903370325945764 5.95067725091243 -1.083347543859649
H 3.803370325945764 5.95067725091243 -1.083347543859649
H 2.610358986934323 6.801643968951815 -1.083347543859649
O 2.055691470483613 -5.812238657685218 -1.805569766081871
H 2.955691470483613 -5.812238657685218 -1.805569766081871
H 1.7626801314721718 -4.961271939645833 -1.805569766081871
O -4.994283111305354 3.148352261436185 -2.5277919883040934
H -4.094283111305353 3.148352261436185 -2.5277919883040934
H -5.287294450316795 3.9993189794755706 -2.5277919883040934
O 5.684773912905808 1.3544391354912482 -3.250014210526317
H 6.584773912905808 1.3544391354912482 -3.250014210526317
H 5.391762573894367 2.2054058535306336 -3.250014210526317
O -2.7721599915031345 -4.063217026268566 -3.972236432748538
H -1.8721599915031346 -4.063217026268566 -3.972236432748538
H -3.0651713305145756 -3.212250308229181 -3.972236432748538
O -0.39085327361060385 4.604266497765467 -4.694458654970761
H 0.5091467263893962 4.604266497765467 -4.694458654970761
H -0.6838646126220449 5.455233215804852 -4.694458654970761
O 2.9342963420614407 -2.1697565621689265 -5.416680877192983
H 3.8342963420614407 -2.1697565621689265 -5.416680877192983
H 2.6412850030499997 -1.3187898441295414 -5.416680877192983
O -1.947633096047857 0.0574781742023457 -6.138903099415205
H -1.047633096047857 0.0574781742023457 -6.138903099415205
H -2.240644435059298 0.9084448922417309 -6.138903099415205
