109
Molecule with added oxygen and hydrogen atoms
Fe        -0.00184        0.00130        0.00011
O          1.06908        1.47213       -1.14701
H          1.12733        1.51224       -2.11152
O          1.77981       -1.23152        0.06666
H          1.92441       -2.00431        0.62980
O          0.62633        1.00145        1.76745
H          0.17491        1.73898        2.20165
O         -1.06527       -1.47521        1.14667
H         -1.59210       -2.20683        0.79591
O         -1.78183        1.23160       -0.06701
H         -1.93653        1.98967       -0.64829
O         -0.62346       -1.00236       -1.76741
H         -0.16265       -1.73543       -2.19903
H         -1.43979       -0.84356       -2.26178
H          2.57938       -1.11650       -0.46495
H          1.57918        2.21592       -0.79795
H         -2.56883        1.13579        0.48795
H          1.44225        0.83271        2.25928
H         -1.11692       -1.52135        2.11134
O 1.7991452422949017 -0.0002778947368421027 4.125098421052631
H 2.6991452422949016 -0.0002778947368421027 4.125098421052631
H 1.5061339032834606 0.850688823302543 4.125098421052631
O -2.1940480893505536 -2.010854642847402 3.3750984210526314
H -1.2940480893505537 -2.010854642847402 3.3750984210526314
H -2.4870594283619947 -1.159887924808017 3.3750984210526314
O 0.32025363077592195 3.6407749555995683 2.625098421052631
H 1.220253630775922 3.6407749555995683 2.625098421052631
H 0.027242291764480953 4.491741673638954 2.625098421052631
O 2.4896900612183543 -3.2467136934117438 1.8750984210526316
H 3.3896900612183543 -3.2467136934117438 1.8750984210526316
H 2.1966787222069133 -2.395746975372359 1.8750984210526316
O -4.289792874536448 0.7586513724207996 1.1250984210526316
H -3.389792874536448 0.7586513724207996 1.1250984210526316
H -4.582804213547889 1.609618090460185 1.1250984210526316
O 3.784400603079785 2.406597355804116 0.37509842105263186
H 4.684400603079785 2.406597355804116 0.37509842105263186
H 3.491389264068344 3.2575640738435014 0.37509842105263186
O -1.1634475669637299 -4.330880143335258 -0.3749015789473682
H -0.26344756696372984 -4.330880143335258 -0.3749015789473682
H -1.456458905975171 -3.479913425295873 -0.3749015789473682
O -2.007512463670356 3.866429215733568 -1.124901578947368
H -1.1075124636703562 3.866429215733568 -1.124901578947368
H -2.300523802681797 4.717395933772953 -1.124901578947368
O 3.843253022832457 -1.4035690203885078 -1.874901578947369
H 4.743253022832457 -1.4035690203885078 -1.874901578947369
H 3.550241683821016 -0.5526023023491227 -1.874901578947369
O -3.3778188436523546 -1.3948848363677266 -2.6249015789473678
H -2.4778188436523547 -1.3948848363677266 -2.6249015789473678
H -3.6708301826637957 -0.5439181183283415 -2.6249015789473678
O 1.2622734052760853 2.695613199239559 -3.3749015789473686
H 2.1622734052760855 2.695613199239559 -3.3749015789473686
H 0.9692620662646443 3.546579917278944 -3.3749015789473686
O 0.5389515428739434 -1.7162817822068108 -4.124901578947369
H 1.4389515428739434 -1.7162817822068108 -4.124901578947369
H 0.24594020386250243 -0.8653150641674257 -4.124901578947369
O 2.3238779064861155 0.14545696132695604 6.138987309941521
H 3.2238779064861154 0.14545696132695604 6.138987309941521
H 2.0308665674746744 0.9964236793663412 6.138987309941521
O -2.461858129804666 -2.281586548897961 5.416765087719299
H -1.561858129804666 -2.281586548897961 5.416765087719299
H -2.754869468816107 -1.430619830858576 5.416765087719299
O 0.5805640802306559 4.624039815090384 4.694542865497077
H 1.4805640802306559 4.624039815090384 4.694542865497077
H 0.28755274121921487 5.475006533129769 4.694542865497077
O 3.317958868608512 -3.9376517290288424 3.9723206432748546
H 4.2179588686085125 -3.9376517290288424 3.9723206432748546
H 3.024947529597071 -3.0866850109894575 3.9723206432748546
O -5.355599046670759 1.1259559217368054 3.250098421052633
H -4.455599046670758 1.1259559217368054 3.250098421052633
H -5.6486103856822 1.9769226397761905 3.250098421052633
O 5.240218048837598 3.3595725648346084 2.52787619883041
H 6.140218048837598 3.3595725648346084 2.52787619883041
H 4.9472067098261565 4.210539282873993 2.52787619883041
O -1.4335040971865718 -5.884656118045234 1.8056539766081876
H -0.5335040971865718 -5.884656118045234 1.8056539766081876
H -1.7265154361980128 -5.033689400005849 1.8056539766081876
O -2.7664771957725875 5.833190648028441 1.0834317543859655
H -1.8664771957725876 5.833190648028441 1.0834317543859655
H -3.0594885347840286 6.684157366067826 1.0834317543859655
O 6.2836747028739275 -2.080850506256223 0.36120953216374363
H 7.183674702873928 -2.080850506256223 0.36120953216374363
H 5.990663363862486 -1.2298837882168379 0.36120953216374363
O -5.811451202190358 -2.330829395481898 -0.3610126900584785
H -4.911451202190357 -2.330829395481898 -0.3610126900584785
H -6.104462541201799 -1.4798626774425128 -0.3610126900584785
O 2.9039813785773427 5.950386198280851 -1.0832349122807008
H 3.8039813785773426 5.950386198280851 -1.0832349122807008
H 2.6109700395659017 6.801352916320236 -1.0832349122807008
O 2.0563025231151917 -5.812529710316797 -1.805457134502923
H 2.9563025231151916 -5.812529710316797 -1.805457134502923
H 1.7632911841037506 -4.961562992277412 -1.805457134502923
O -4.993672058673774 3.1480612088046063 -2.527679356725145
H -4.093672058673774 3.1480612088046063 -2.527679356725145
H -5.2866833976852154 3.9990279268439917 -2.527679356725145
O 5.685384965537387 1.3541480828596693 -3.2499015789473686
H 6.585384965537387 1.3541480828596693 -3.2499015789473686
H 5.392373626525946 2.2051148008990547 -3.2499015789473686
O -2.7715489388715557 -4.063508078900145 -3.9721238011695896
H -1.8715489388715558 -4.063508078900145 -3.9721238011695896
H -3.064560277882997 -3.21254136086076 -3.9721238011695896
O -0.39024222097902483 4.603975445133888 -4.694346023391812
H 0.5097577790209752 4.603975445133888 -4.694346023391812
H -0.6832535599904659 5.454942163173273 -4.694346023391812
O 2.9349073946930195 -2.1700476148005055 -5.416568245614034
H 3.8349073946930194 -2.1700476148005055 -5.416568245614034
H 2.6418960556815785 -1.3190808967611203 -5.416568245614034
O -1.9470220434162782 0.05718712157076679 -6.138790467836256
H -1.0470220434162782 0.05718712157076679 -6.138790467836256
H -2.240033382427719 0.908153839610152 -6.138790467836256
