55
Molecule with added oxygen and hydrogen atoms
Fe         0.00063       -0.00122        0.00002
O         -1.93448       -0.91050        0.49260
H         -2.56723       -1.31399       -0.11445
O         -0.97189        1.95719       -0.12168
H         -0.61027        2.76367       -0.51066
O          0.39618        0.33023        2.08540
H          0.90463       -0.24382        2.67296
O          1.92807        0.92372       -0.49418
H          2.28337        1.05513       -1.38221
O          0.97384       -1.95917        0.12332
H          1.85393       -2.18792       -0.20299
O         -0.39561       -0.33371       -2.08527
H         -0.90722        0.24017       -2.67035
H         -0.21226       -1.14131       -2.58287
H         -1.85813        2.18104        0.18954
H         -2.28716       -1.04475        1.38093
H          0.61709       -2.76356        0.52117
H          0.21520        1.14010        2.58013
H          2.58288        1.28495        0.11686
O 1.799045768610691 -0.0012500000000000202 4.124908947368421
H 2.699045768610691 -0.0012500000000000202 4.124908947368421
H 1.50603442959925 0.8497167180393852 4.124908947368421
O -2.1941475630347638 -2.0118267481105603 3.374908947368421
H -1.2941475630347639 -2.0118267481105603 3.374908947368421
H -2.487158902046205 -1.160860030071175 3.374908947368421
O 0.32015415709171147 3.63980285033641 2.6249089473684206
H 1.2201541570917116 3.63980285033641 2.6249089473684206
H 0.02714281808027047 4.4907695683757956 2.6249089473684206
O 2.489590587534144 -3.247685798674902 1.874908947368421
H 3.389590587534144 -3.247685798674902 1.874908947368421
H 2.196579248522703 -2.396719080635517 1.874908947368421
O -4.289892348220659 0.7576792671576418 1.124908947368421
H -3.3898923482206587 0.7576792671576418 1.124908947368421
H -4.5829036872321 1.608645985197027 1.124908947368421
O 3.784301129395575 2.405625250540958 0.37490894736842134
H 4.684301129395575 2.405625250540958 0.37490894736842134
H 3.491289790384134 3.2565919685803433 0.37490894736842134
O -1.1635470406479405 -4.331852248598415 -0.3750910526315787
H -0.26354704064794043 -4.331852248598415 -0.3750910526315787
H -1.4565583796593815 -3.4808855305590303 -0.3750910526315787
O -2.0076119373545662 3.86545711047041 -1.1250910526315785
H -1.1076119373545663 3.86545711047041 -1.1250910526315785
H -2.3006232763660073 4.716423828509795 -1.1250910526315785
O 3.843153549148247 -1.4045411256516658 -1.8750910526315796
H 4.743153549148247 -1.4045411256516658 -1.8750910526315796
H 3.550142210136806 -0.5535744076122806 -1.8750910526315796
O -3.377918317336565 -1.3958569416308846 -2.625091052631578
H -2.477918317336565 -1.3958569416308846 -2.625091052631578
H -3.670929656348006 -0.5448902235914994 -2.625091052631578
O 1.2621739315918747 2.6946410939764007 -3.375091052631579
H 2.162173931591875 2.6946410939764007 -3.375091052631579
H 0.9691625925804337 3.5456078120157857 -3.375091052631579
O 0.5388520691897329 -1.7172538874699688 -4.125091052631579
H 1.4388520691897329 -1.7172538874699688 -4.125091052631579
H 0.24584073017829194 -0.8662871694305836 -4.125091052631579
