55
Molecule with added oxygen and hydrogen atoms
Ti        -0.00001        0.00001       -0.00000
O          0.11876       -1.83440       -1.23154
H         -0.51211       -2.12770       -1.90399
O          1.64693       -0.81201        1.23437
H          2.56008       -0.49199        1.25361
O          1.52798        1.01781       -1.23474
H          1.70715        1.96863       -1.25601
O         -0.11875        1.83437        1.23160
H         -0.85251        2.46512        1.25081
O         -1.64691        0.81203       -1.23440
H         -2.56005        0.49199       -1.25370
O         -1.52800       -1.01782        1.23472
H         -1.70714       -1.96864        1.25594
H         -2.09645       -0.61694        1.90730
H          1.58484       -1.50358        1.90823
H          0.85251       -2.46516       -1.25066
H         -1.58482        1.50366       -1.90820
H          2.09640        0.61690       -1.90734
H          0.51218        2.12766        1.90401
O 1.798441031768586 -3.157894736792674e-06 4.125000526315789
H 2.698441031768586 -3.157894736792674e-06 4.125000526315789
H 1.5054296927571449 0.8509635601446484 4.125000526315789
O -2.1947522998768694 -2.010579906005297 3.3750005263157896
H -1.2947522998768695 -2.010579906005297 3.3750005263157896
H -2.4877636388883104 -1.1596131879659117 3.3750005263157896
O 0.31954942024960625 3.6410496924416735 2.625000526315789
H 1.2195494202496062 3.6410496924416735 2.625000526315789
H 0.026538081238165256 4.4920164104810585 2.625000526315789
O 2.4889858506920386 -3.2464389565696385 1.8750005263157894
H 3.3889858506920385 -3.2464389565696385 1.8750005263157894
H 2.1959745116805975 -2.395472238530253 1.8750005263157894
O -4.290497085062763 0.7589261092629049 1.1250005263157894
H -3.3904970850627634 0.7589261092629049 1.1250005263157894
H -4.583508424074204 1.60989282730229 1.1250005263157894
O 3.7836963925534692 2.4068720926462213 0.3750005263157898
H 4.683696392553469 2.4068720926462213 0.3750005263157898
H 3.490685053542028 3.257838810685606 0.3750005263157898
O -1.1641517774900456 -4.330605406493152 -0.37499947368421027
H -0.2641517774900456 -4.330605406493152 -0.37499947368421027
H -1.4571631165014867 -3.4796386884537673 -0.37499947368421027
O -2.008216674196672 3.8667039525756732 -1.1249994736842102
H -1.108216674196672 3.8667039525756732 -1.1249994736842102
H -2.301228013208113 4.717670670615059 -1.1249994736842102
O 3.8425488123061413 -1.4032942835464026 -1.8749994736842113
H 4.742548812306142 -1.4032942835464026 -1.8749994736842113
H 3.5495374732947003 -0.5523275655070174 -1.8749994736842113
O -3.3785230541786704 -1.3946100995256214 -2.6249994736842095
H -2.4785230541786705 -1.3946100995256214 -2.6249994736842095
H -3.6715343931901114 -0.5436433814862363 -2.6249994736842095
O 1.2615691947497696 2.695887936081664 -3.3749994736842104
H 2.1615691947497697 2.695887936081664 -3.3749994736842104
H 0.9685578557383285 3.5468546541210495 -3.3749994736842104
O 0.5382473323476277 -1.7160070453647056 -4.124999473684211
H 1.4382473323476277 -1.7160070453647056 -4.124999473684211
H 0.24523599333618668 -0.8650403273253204 -4.124999473684211
