55
Molecule with added oxygen and hydrogen atoms
Fe         0.00001        0.00004       -0.00001
O         -0.03676       -2.14110        0.00006
H          0.51428       -2.72389       -0.53446
O         -1.84383        0.03148        1.07746
H         -1.94055        0.03347        2.03649
O          1.10400       -0.01883        1.79794
H          1.44126        0.75243        2.26842
O          0.03665        2.14114       -0.00007
H          0.60673        2.70473       -0.53519
O          1.84388       -0.03149       -1.07740
H          1.94065       -0.03357       -2.03643
O         -1.10396        0.01870       -1.79797
H         -1.44106       -0.75268       -2.26836
H         -1.41551        0.80100       -2.26795
H         -2.73098        0.04581        0.70086
H         -0.60715       -2.70462        0.53492
H          2.73100       -0.04567       -0.70076
H          1.41540       -0.80124        2.26783
H         -0.51418        2.72386        0.53473
O 1.7984305054527965 -2.26315789473297e-05 4.1250057894736845
H 2.6984305054527966 -2.26315789473297e-05 4.1250057894736845
H 1.5054191664413554 0.8509440864604378 4.1250057894736845
O -2.1947628261926586 -2.0105993796895074 3.3750057894736845
H -1.2947628261926587 -2.0105993796895074 3.3750057894736845
H -2.4877741652040997 -1.1596326616501222 3.3750057894736845
O 0.31953889393381674 3.641030218757463 2.625005789473684
H 1.2195388939338168 3.641030218757463 2.625005789473684
H 0.02652755492237574 4.491996936796848 2.625005789473684
O 2.4889753243762494 -3.246458430253849 1.8750057894736842
H 3.3889753243762493 -3.246458430253849 1.8750057894736842
H 2.1959639853648083 -2.395491712214464 1.8750057894736842
O -4.290507611378553 0.7589066355786944 1.1250057894736842
H -3.390507611378553 0.7589066355786944 1.1250057894736842
H -4.583518950389994 1.6098733536180796 1.1250057894736842
O 3.78368586623768 2.4068526189620107 0.3750057894736845
H 4.68368586623768 2.4068526189620107 0.3750057894736845
H 3.490674527226239 3.257819337001396 0.3750057894736845
O -1.164162303805835 -4.330624880177362 -0.37499421052631554
H -0.26416230380583505 -4.330624880177362 -0.37499421052631554
H -1.4571736428172761 -3.4796581621379774 -0.37499421052631554
O -2.008227200512461 3.8666844788914627 -1.1249942105263153
H -1.1082272005124612 3.8666844788914627 -1.1249942105263153
H -2.301238539523902 4.717651196930848 -1.1249942105263153
O 3.842538285990352 -1.4033137572306131 -1.8749942105263164
H 4.742538285990352 -1.4033137572306131 -1.8749942105263164
H 3.549526946978911 -0.552347039191228 -1.8749942105263164
O -3.3785335804944596 -1.394629573209832 -2.6249942105263147
H -2.4785335804944597 -1.394629573209832 -2.6249942105263147
H -3.6715449195059007 -0.5436628551704468 -2.6249942105263147
O 1.2615586684339801 2.6958684623974536 -3.3749942105263155
H 2.16155866843398 2.6958684623974536 -3.3749942105263155
H 0.9685473294225391 3.5468351804368385 -3.3749942105263155
O 0.5382368060318381 -1.7160265190489161 -4.1249942105263155
H 1.438236806031838 -1.7160265190489161 -4.1249942105263155
H 0.2452254670203971 -0.865059801009531 -4.1249942105263155
