55
Molecule with added oxygen and hydrogen atoms
Fe        -0.00025       -0.00003        0.00002
O         -0.09810        1.81466       -1.06252
H         -0.11146        1.90604       -2.01534
O          2.12444        0.09681       -0.02733
H          2.72100       -0.41172        0.52193
O         -0.02551        1.09020        1.76824
H         -0.80719        1.37765        2.24144
O          0.09810       -1.81473        1.06242
H          0.13359       -2.69260        0.68240
O         -2.12464       -0.09658        0.02733
H         -2.72103        0.41036       -0.52359
O          0.02633       -1.09030       -1.76818
H          0.80884       -1.37717       -2.24034
H         -0.73820       -1.45089       -2.21877
H          2.65931        0.65648       -0.59025
H         -0.13633        2.69244       -0.68257
H         -2.65973       -0.65447        0.59181
H          0.73987        1.45027        2.21780
H          0.11276       -1.90615        2.01521
O 1.7985315580843755 1.4210526315800764e-05 4.124984736842105
H 2.6985315580843756 1.4210526315800764e-05 4.124984736842105
H 1.5055202190729344 0.850980928565701 4.124984736842105
O -2.1946617735610796 -2.0105625375842444 3.374984736842105
H -1.2946617735610797 -2.0105625375842444 3.374984736842105
H -2.4876731125725207 -1.1595958195448592 3.374984736842105
O 0.31963994656539574 3.641067060862726 2.6249847368421046
H 1.2196399465653958 3.641067060862726 2.6249847368421046
H 0.026628607553954742 4.492033778902111 2.6249847368421046
O 2.4890763770078284 -3.246421588148586 1.8749847368421053
H 3.3890763770078283 -3.246421588148586 1.8749847368421053
H 2.1960650379963873 -2.3954548701092007 1.8749847368421053
O -4.290406558746974 0.7589434776839575 1.1249847368421053
H -3.390406558746974 0.7589434776839575 1.1249847368421053
H -4.583417897758415 1.6099101957233426 1.1249847368421053
O 3.783786918869259 2.4068894610672737 0.37498473684210554
H 4.683786918869259 2.4068894610672737 0.37498473684210554
H 3.490775579857818 3.2578561791066587 0.37498473684210554
O -1.164061251174256 -4.3305880380721 -0.3750152631578945
H -0.26406125117425605 -4.3305880380721 -0.3750152631578945
H -1.4570725901856971 -3.479621320032715 -0.3750152631578945
O -2.008126147880882 3.8667213209967257 -1.1250152631578942
H -1.1081261478808822 3.8667213209967257 -1.1250152631578942
H -2.301137486892323 4.717688039036111 -1.1250152631578942
O 3.842639338621931 -1.40327691512535 -1.8750152631578954
H 4.742639338621931 -1.40327691512535 -1.8750152631578954
H 3.54962799961049 -0.5523101970859647 -1.8750152631578954
O -3.3784325278628806 -1.3945927311045687 -2.625015263157894
H -2.4784325278628807 -1.3945927311045687 -2.625015263157894
H -3.6714438668743217 -0.5436260130651835 -2.625015263157894
O 1.2616597210655591 2.6959053045027166 -3.375015263157895
H 2.161659721065559 2.6959053045027166 -3.375015263157895
H 0.9686483820541181 3.546872022542102 -3.375015263157895
O 0.5383378586634171 -1.715989676943653 -4.125015263157895
H 1.438337858663417 -1.715989676943653 -4.125015263157895
H 0.2453265196519761 -0.8650229589042677 -4.125015263157895
