55
Molecule with added oxygen and hydrogen atoms
Fe        -0.00009        0.00013       -0.00046
O         -1.13721        0.34145        1.75528
H         -1.28067        1.19596        2.18592
O          1.75905       -0.39992        1.15641
H          2.63619       -0.61931        0.81331
O         -0.52127       -2.08833        0.06498
H         -1.18737       -2.53071       -0.47877
O          1.13717       -0.34221       -1.75539
H          1.65060        0.31777       -2.24221
O         -1.76126        0.40093       -1.15340
H         -1.82483        0.39305       -2.11837
O          0.52374        2.08775       -0.06703
H          1.18995        2.52942        0.47717
H          0.13583        2.75944       -0.64443
H          1.81935       -0.39134        2.12158
H         -1.65005       -0.31923        2.24178
H         -2.63700        0.62106       -0.80719
H         -0.13170       -2.75974        0.64159
H          1.28028       -1.19718       -2.18522
O 1.7984741896633227 -5.315789473683976e-05 4.125292105263158
H 2.698474189663323 -5.315789473683976e-05 4.125292105263158
H 1.5054628506518817 0.8509135601446484 4.125292105263158
O -2.1947191419821324 -2.010629906005297 3.3752921052631577
H -1.2947191419821324 -2.010629906005297 3.3752921052631577
H -2.4877304809935734 -1.1596631879659116 3.3752921052631577
O 0.31958257814434304 3.6409996924416737 2.6252921052631573
H 1.219582578144343 3.6409996924416737 2.6252921052631573
H 0.026571239132902047 4.491966410481059 2.6252921052631573
O 2.4890190085867756 -3.2464889565696384 1.875292105263158
H 3.3890190085867755 -3.2464889565696384 1.875292105263158
H 2.1960076695753346 -2.395522238530253 1.875292105263158
O -4.290463927168027 0.7588761092629049 1.125292105263158
H -3.390463927168027 0.7588761092629049 1.125292105263158
H -4.583475266179468 1.6098428273022902 1.125292105263158
O 3.7837295504482062 2.4068220926462214 0.3752921052631582
H 4.683729550448207 2.4068220926462214 0.3752921052631582
H 3.490718211436765 3.2577888106856063 0.3752921052631582
O -1.1641186195953088 -4.330655406493152 -0.37470789473684185
H -0.2641186195953088 -4.330655406493152 -0.37470789473684185
H -1.4571299586067499 -3.479688688453767 -0.37470789473684185
O -2.008183516301935 3.8666539525756733 -1.1247078947368416
H -1.108183516301935 3.8666539525756733 -1.1247078947368416
H -2.301194855313376 4.717620670615059 -1.1247078947368416
O 3.8425819702008783 -1.4033442835464027 -1.8747078947368427
H 4.742581970200878 -1.4033442835464027 -1.8747078947368427
H 3.5495706311894373 -0.5523775655070176 -1.8747078947368427
O -3.3784898962839334 -1.3946600995256215 -2.6247078947368414
H -2.4784898962839335 -1.3946600995256215 -2.6247078947368414
H -3.6715012352953744 -0.5436933814862364 -2.6247078947368414
O 1.2616023526445064 2.695837936081664 -3.3747078947368423
H 2.1616023526445063 2.695837936081664 -3.3747078947368423
H 0.9685910136330653 3.5468046541210496 -3.3747078947368423
O 0.5382804902423645 -1.7160570453647057 -4.124707894736842
H 1.4382804902423645 -1.7160570453647057 -4.124707894736842
H 0.24526915123092347 -0.8650903273253205 -4.124707894736842
