55
Molecule with added oxygen and hydrogen atoms
Fe         0.00004        0.00010       -0.00002
O         -1.15616       -0.29298        1.74984
H         -1.65955        0.37706        2.22714
O          1.77383        0.37996        1.15167
H          2.65290        0.58253        0.81227
O          0.47997       -2.10555       -0.03572
H          0.09217       -2.77893       -0.60611
O          1.15601        0.29287       -1.75001
H          1.32047        1.13130       -2.19741
O         -1.77388       -0.37996       -1.15147
H         -2.65381       -0.57878       -0.81148
O         -0.47989        2.10555        0.03570
H         -0.09301        2.77874        0.60697
H         -1.12384        2.56150       -0.51801
H          1.84533        0.38285        2.11289
H         -1.32142       -1.13176        2.19635
H         -1.84454       -0.38761       -2.11293
H          1.12472       -2.56140        0.51715
H          1.66045       -0.37710       -2.22627
O 1.798425768610691 -8.473684210523396e-05 4.125028947368421
H 2.698425768610691 -8.473684210523396e-05 4.125028947368421
H 1.50541442959925 0.85088198119728 4.125028947368421
O -2.194767563034764 -2.0106614849526654 3.375028947368421
H -1.294767563034764 -2.0106614849526654 3.375028947368421
H -2.487778902046205 -1.1596947669132802 3.375028947368421
O 0.31953415709171146 3.640968113494305 2.6250289473684205
H 1.2195341570917115 3.640968113494305 2.6250289473684205
H 0.02652281808027046 4.49193483153369 2.6250289473684205
O 2.488970587534144 -3.246520535517007 1.875028947368421
H 3.388970587534144 -3.246520535517007 1.875028947368421
H 2.195959248522703 -2.395553817477622 1.875028947368421
O -4.290512348220658 0.7588445303155366 1.125028947368421
H -3.3905123482206583 0.7588445303155366 1.125028947368421
H -4.583523687232099 1.6098112483549216 1.125028947368421
O 3.7836811293955748 2.4067905136988528 0.3750289473684213
H 4.683681129395575 2.4067905136988528 0.3750289473684213
H 3.4906697903841337 3.257757231738238 0.3750289473684213
O -1.1641670406479405 -4.33068698544052 -0.37497105263157876
H -0.2641670406479405 -4.33068698544052 -0.37497105263157876
H -1.4571783796593816 -3.4797202674011354 -0.37497105263157876
O -2.0082319373545663 3.8666223736283047 -1.1249710526315786
H -1.1082319373545664 3.8666223736283047 -1.1249710526315786
H -2.3012432763660073 4.71758909166769 -1.1249710526315786
O 3.842533549148247 -1.403375862493771 -1.8749710526315797
H 4.742533549148247 -1.403375862493771 -1.8749710526315797
H 3.549522210136806 -0.5524091444543859 -1.8749710526315797
O -3.378538317336565 -1.39469167847299 -2.624971052631578
H -2.478538317336565 -1.39469167847299 -2.624971052631578
H -3.671549656348006 -0.5437249604336047 -2.624971052631578
O 1.2615539315918747 2.6958063571342956 -3.374971052631579
H 2.161553931591875 2.6958063571342956 -3.374971052631579
H 0.9685425925804336 3.5467730751736806 -3.374971052631579
O 0.5382320691897329 -1.716088624312074 -4.124971052631579
H 1.4382320691897328 -1.716088624312074 -4.124971052631579
H 0.24522073017829188 -0.8651219062726889 -4.124971052631579
