55
Molecule with added oxygen and hydrogen atoms
Fe         0.00023       -0.00015       -0.00001
O          1.22693        1.35432       -1.13511
H          1.30395        1.38338       -2.09859
O          1.65520       -1.39215        0.11797
H          1.72021       -2.16269        0.69859
O          0.67483        0.95964        1.77239
H          0.27896        1.73960        2.18573
O         -1.22740       -1.35379        1.13515
H         -1.80186       -2.04644        0.78106
O         -1.65502        1.39198       -0.11809
H         -1.71871        2.16433       -0.69643
O         -0.67527       -0.95951       -1.77229
H         -0.27964       -1.73888       -2.18700
H         -1.46071       -0.72631       -2.28666
H          2.46958       -1.36216       -0.40259
H          1.80637        2.04266       -0.78069
H         -2.47074        1.36008        0.40024
H          1.45947        0.72670        2.28806
H         -1.30700       -1.38045        2.09856
O 1.7984041896633227 8.421052631599055e-06 4.125015263157895
H 2.698404189663323 8.421052631599055e-06 4.125015263157895
H 1.5053928506518817 0.8509751390920167 4.125015263157895
O -2.1947891419821324 -2.0105683270579284 3.375015263157895
H -1.2947891419821325 -2.0105683270579284 3.375015263157895
H -2.4878004809935734 -1.1596016090185433 3.375015263157895
O 0.31951257814434303 3.641061271389042 2.6250152631578945
H 1.219512578144343 3.641061271389042 2.6250152631578945
H 0.026501239132902032 4.492027989428427 2.6250152631578945
O 2.4889490085867756 -3.24642737762227 1.8750152631578947
H 3.3889490085867755 -3.24642737762227 1.8750152631578947
H 2.1959376695753345 -2.395460659582885 1.8750152631578947
O -4.290533927168027 0.7589376882102733 1.1250152631578947
H -3.390533927168027 0.7589376882102733 1.1250152631578947
H -4.583545266179468 1.6099044062496586 1.1250152631578947
O 3.7836595504482062 2.4068836715935897 0.3750152631578951
H 4.683659550448207 2.4068836715935897 0.3750152631578951
H 3.490648211436765 3.257850389632975 0.3750152631578951
O -1.1641886195953088 -4.330593827545784 -0.374984736842105
H -0.2641886195953088 -4.330593827545784 -0.374984736842105
H -1.45719995860675 -3.4796271095063993 -0.374984736842105
O -2.008253516301935 3.8667155315230417 -1.1249847368421049
H -1.108253516301935 3.8667155315230417 -1.1249847368421049
H -2.301264855313376 4.717682249562427 -1.1249847368421049
O 3.8425119702008783 -1.4032827045990341 -1.874984736842106
H 4.742511970200878 -1.4032827045990341 -1.874984736842106
H 3.5495006311894373 -0.552315986559649 -1.874984736842106
O -3.3785598962839334 -1.394598520578253 -2.624984736842104
H -2.4785598962839335 -1.394598520578253 -2.624984736842104
H -3.6715712352953744 -0.5436318025388678 -2.624984736842104
O 1.2615323526445064 2.6958995150290326 -3.374984736842105
H 2.1615323526445063 2.6958995150290326 -3.374984736842105
H 0.9685210136330653 3.5468662330684175 -3.374984736842105
O 0.5382104902423644 -1.7159954664173371 -4.124984736842105
H 1.4382104902423645 -1.7159954664173371 -4.124984736842105
H 0.24519915123092345 -0.865028748377952 -4.124984736842105
