55
Molecule with added oxygen and hydrogen atoms
Fe         0.00023       -0.00071       -0.00007
O          1.87754        0.10936       -1.03329
H          2.00154        0.08826       -1.98831
O          0.16489       -2.14450        0.07070
H         -0.36424       -2.74318        0.60895
O          1.05326        0.14486        1.83070
H          1.30078        0.95976        2.28171
O         -1.87719       -0.10826        1.03367
H         -2.75111       -0.18841        0.63589
O         -0.16632        2.14361       -0.07043
H          0.36589        2.74385       -0.60424
O         -1.05257       -0.14330       -1.83114
H         -1.30358       -0.95641       -2.28336
H         -1.41736        0.59069       -2.33794
H          0.78281       -2.68881       -0.42922
H          2.75139        0.18694       -0.63537
H         -0.78985        2.68609        0.42496
H          1.42181       -0.58678        2.33825
H         -2.00088       -0.08774        1.98879
O 1.798281031768586 0.0002799999999999316 4.125013157894736
H 2.698281031768586 0.0002799999999999316 4.125013157894736
H 1.505269692757145 0.8512467180393851 4.125013157894736
O -2.194912299876869 -2.01029674811056 3.375013157894737
H -1.2949122998768692 -2.01029674811056 3.375013157894737
H -2.48792363888831 -1.1593300300711749 3.375013157894737
O 0.31938942024960626 3.6413328503364104 2.6250131578947364
H 1.2193894202496063 3.6413328503364104 2.6250131578947364
H 0.026378081238165263 4.492299568375795 2.6250131578947364
O 2.488825850692039 -3.2461557986749017 1.8750131578947369
H 3.388825850692039 -3.2461557986749017 1.8750131578947369
H 2.195814511680598 -2.3951890806355163 1.8750131578947369
O -4.290657085062763 0.7592092671576417 1.1250131578947369
H -3.3906570850627635 0.7592092671576417 1.1250131578947369
H -4.5836684240742045 1.610175985197027 1.1250131578947369
O 3.7835363925534695 2.407155250540958 0.3750131578947371
H 4.68353639255347 2.407155250540958 0.3750131578947371
H 3.4905250535420285 3.258121968580343 0.3750131578947371
O -1.1643117774900456 -4.330322248598415 -0.37498684210526295
H -0.26431177749004553 -4.330322248598415 -0.37498684210526295
H -1.4573231165014866 -3.4793555305590305 -0.37498684210526295
O -2.0083766741966715 3.86698711047041 -1.1249868421052627
H -1.1083766741966716 3.86698711047041 -1.1249868421052627
H -2.3013880132081126 4.7179538285097955 -1.1249868421052627
O 3.8423888123061416 -1.403011125651666 -1.8749868421052638
H 4.7423888123061415 -1.403011125651666 -1.8749868421052638
H 3.5493774732947005 -0.5520444076122808 -1.8749868421052638
O -3.37868305417867 -1.3943269416308848 -2.6249868421052622
H -2.47868305417867 -1.3943269416308848 -2.6249868421052622
H -3.671694393190111 -0.5433602235914996 -2.6249868421052622
O 1.2614091947497696 2.696171093976401 -3.374986842105263
H 2.1614091947497696 2.696171093976401 -3.374986842105263
H 0.9683978557383286 3.5471378120157864 -3.374986842105263
O 0.5380873323476276 -1.715723887469969 -4.124986842105264
H 1.4380873323476275 -1.715723887469969 -4.124986842105264
H 0.24507599333618663 -0.8647571694305838 -4.124986842105264
