100
Molecule with added oxygen and hydrogen atoms
Fe         0.16971       -0.10235        0.14478
C         -1.22545       -0.33787        1.51564
C          1.03626        1.27753        1.25314
C          1.27390       -1.49589        0.99391
C          1.54948        0.13256       -1.24183
C         -0.72519       -1.46436       -0.96214
C         -0.92299        1.29116       -0.71652
N         -2.07184       -0.47703        2.32097
N          1.54290        2.11348        1.90779
N          1.94535       -2.32411        1.49145
N          2.36813        0.27443       -2.07490
N         -1.27923       -2.26989       -1.61669
N         -1.57933        2.11858       -1.23561
H         -3.67962        2.19959       -3.22595
H         -2.71523        2.82172       -2.22972
H          2.68457        1.78740       -4.52130
H          3.13758        0.80828       -3.45092
H          1.31428        4.97755        2.22866
H          1.89925        3.61081        2.54140
H          3.23980       -3.32846        1.77818
H          4.55990       -3.47027        1.03974
H         -3.52164       -0.31941        3.12296
H         -4.73947        0.53316        2.80674
H         -3.73054       -3.79356       -1.42111
H         -2.44069       -3.36359       -2.09858
O          1.98114        4.59676        2.80912
O          3.45207        1.24043       -4.32536
O          4.11608       -3.86018        1.79979
O         -4.45840       -0.09949        3.47563
O         -3.24358       -3.98598       -2.22899
O         -3.44964        3.07482       -2.89755
O 2.154993514547323 0.06986516129032262 7.34170264141523
H 3.054993514547323 0.06986516129032262 7.34170264141523
H 1.861982175535882 0.9208318793297078 7.34170264141523
O -2.945175851405645 -2.5243609559849864 6.665426829439065
H -2.045175851405645 -2.5243609559849864 6.665426829439065
H -3.238187190417086 -1.6733942379456013 6.665426829439065
O 0.3099582155185202 4.892725678714532 5.989151017462901
H 1.2099582155185202 4.892725678714532 5.989151017462901
H 0.01694687650707921 5.743692396753917 5.989151017462901
O 3.286016090882262 -4.363946616059702 5.312875205486736
H 4.186016090882262 -4.363946616059702 5.312875205486736
H 2.993004751870821 -3.5129798980203173 5.312875205486736
O -6.189417782647942 1.1446440439506742 4.636599393510572
H -5.289417782647941 1.1446440439506742 4.636599393510572
H -6.482429121659383 1.9956107619900594 4.636599393510572
O 5.484796549618526 3.6309188244759882 3.960323581534408
H 6.384796549618526 3.6309188244759882 3.960323581534408
H 5.191785210607085 4.481885542515373 3.960323581534408
O -1.931474127833962 -6.693635168419802 3.284047769558242
H -1.0314741278339619 -6.693635168419802 3.284047769558242
H -2.224485466845403 -5.842668450380417 3.284047769558242
O -3.4740348239955505 6.54074686392404 2.6077719575820772
H -2.5740348239955506 6.54074686392404 2.6077719575820772
H -3.7670461630069916 7.391713581963425 2.6077719575820772
O 6.9390069914538 -2.5056276903315378 1.931496145605915
H 7.8390069914538 -2.5056276903315378 1.931496145605915
H 6.645995652442359 -1.6546609722921526 1.931496145605915
O -7.192548804001407 -2.852343970631451 1.2552203336297494
H -6.292548804001407 -2.852343970631451 1.2552203336297494
H -7.485560143012848 -2.001377252592066 1.2552203336297494
O 3.1705325027319606 7.0872341307268645 0.5789445216535856
H 4.070532502731961 7.0872341307268645 0.5789445216535856
H 2.8775211637205196 7.938200848766249 0.5789445216535856
O 2.214277525917288 -7.350833163736792 -0.09733129032258019
H 3.114277525917288 -7.350833163736792 -0.09733129032258019
H 1.921266186905847 -6.499866445697407 -0.09733129032258019
O -6.816712435318907 3.954627070158767 -0.7736071022987443
H -5.916712435318907 3.954627070158767 -0.7736071022987443
H -7.109723774330348 4.805593788198152 -0.7736071022987443
O 7.366718885995502 1.7143273231322933 -1.44988291427491
H 8.266718885995502 1.7143273231322933 -1.44988291427491
H 7.073707546984061 2.5652940411716783 -1.44988291427491
O -4.431307213762151 -6.072049339252132 -2.1261587262510755
H -3.5313072137621515 -6.072049339252132 -2.1261587262510755
H -4.7243185527735925 -5.221082621212747 -2.1261587262510755
O -1.0503476656900568 7.3009624741158925 -2.8024345382272378
H -0.15034766569005675 7.3009624741158925 -2.8024345382272378
H -1.3433590047014978 8.151929192155277 -2.8024345382272378
O 5.2420056266916175 -4.44359589660289 -3.4787103502034027
H 6.142005626691618 -4.44359589660289 -3.4787103502034027
H 4.9489942876801765 -3.592629178563505 -3.4787103502034027
O -6.742383615442119 -0.20426807175957445 -4.154986162179569
H -5.8423836154421185 -0.20426807175957445 -4.154986162179569
H -7.03539495445356 0.6466986462798108 -4.154986162179569
O 4.260483262930674 4.422368181154606 -4.8312619741557326
H 5.160483262930675 4.422368181154606 -4.8312619741557326
H 3.9674719239192333 5.273334899193991 -4.8312619741557326
O -0.37137405133285284 -5.511126469344785 -5.507537786131896
H 0.5286259486671472 -5.511126469344785 -5.507537786131896
H -0.6643853903442938 -4.6601597513054 -5.507537786131896
O -3.215232510055955 3.787011597876262 -6.183813598108062
H -2.315232510055955 3.787011597876262 -6.183813598108062
H -3.508243849067396 4.637978315915647 -6.183813598108062
O 3.6929058415724962 -0.4422550590098059 -6.860089410084228
H 4.592905841572496 -0.4422550590098059 -6.860089410084228
H 3.399894502561055 0.4087116590295793 -6.860089410084228
O -1.9752558653330619 -1.2256320904117146 -7.5363652220603905
H -1.075255865333062 -1.2256320904117146 -7.5363652220603905
H -2.268267204344503 -0.37466537237232944 -7.5363652220603905
