55
Fe structure from paper
Fe -0.028532 0.019120 0.110164
O -1.726834 -0.143504 1.228614
O 0.812364 1.413501 1.330564
O 1.647329 0.109644 -1.116478
O -0.924417 -1.219536 -1.333462
O -0.894961 1.639453 -0.927821
O 0.786750 -1.490304 1.114853
H -1.880375 1.820011 -0.940126
H -0.431276 2.274557 -1.532372
H 0.410787 -1.890931 1.978173
H 1.745840 -1.838006 0.939263
H -2.192643 0.593701 1.693770
H -2.383774 -0.945254 1.149900
H 2.493289 0.528237 -0.748148
H 1.917379 -0.696285 -1.652151
H 1.068365 2.298415 0.945425
H 1.608430 1.113771 1.929238
H -1.886511 -1.080924 -1.587179
H -0.650308 -2.130145 -1.612742
O -3.621846 1.859436 2.016576
O 3.135876 -2.284084 0.473493
O -3.586636 -0.804202 -1.676849
O 0.042391 -3.616632 -2.499212
O -3.602253 1.865720 -0.773914
O -3.343460 -2.059018 0.801252
O -0.166939 -2.532163 3.303475
O 2.917400 0.647858 2.551530
O 1.996816 3.584826 0.078483
O 0.502230 3.671436 -2.318761
O 3.744359 1.425256 -0.081681
O 2.467979 -2.230414 -2.246410
H -3.768769 -1.854152 -0.063704
H -3.992713 -2.502469 1.374296
H -4.411647 1.534032 2.491021
H -3.387565 2.688854 2.475979
H -4.151357 2.536433 -1.221747
H -3.781879 1.957075 0.200999
H 0.022355 4.499730 -2.514606
H 0.980570 3.464143 -3.144689
H -4.121804 -1.020874 -2.462393
H -3.768593 0.146430 -1.456423
H -0.283233 -3.762376 -3.408855
H -0.009872 -4.494483 -2.074067
H 3.092192 -2.297536 -2.992761
H 1.704580 -2.828183 -2.457690
H 4.630101 1.457816 -0.487857
H 3.387850 2.351101 -0.079840
H 2.203232 4.442865 0.494042
H 1.563361 3.786500 -0.790002
H 3.286805 0.983278 3.388137
H 3.592423 0.787170 1.849743
H -0.300258 -3.491353 3.408868
H 0.088048 -2.200587 4.183070
H 3.713578 -2.904886 0.950997
H 3.146038 -2.520986 -0.483858
