49
test
 C                 -0.44391917   -1.76596340    0.60277456
 C                 -1.25297164   -0.82027002    1.12074878
 C                 -0.75886131    0.44794740    1.45841172
 C                  0.62413530    0.74212772    1.21091692
 C                  1.39285144   -0.21206567    0.53188296
 C                  0.88703932   -1.49560520    0.32352677
 C                  2.75872823    0.07367585   -0.11280153
 O                  3.31165698    1.15941695    0.02619539
 O                  3.30940165   -0.79664040   -0.95333442
 O                  0.97606806    1.94472842    1.56638639
 H                 -0.83226925   -2.74663597    0.39632781
 H                 -2.29707337   -1.02269154    1.24673231
 H                 -1.40723191    1.16579963    1.89747596
 H                  1.51224943   -2.27746592   -0.04708391
 Fe                 2.67179176    2.45931821    1.14360812
 C                  0.00990738    2.49148138    5.35296010
 C                  0.04848258    3.77811724    4.90849125
 C                  0.95312936    4.13560706    3.87644593
 C                  1.80424127    3.24059239    3.33261056
 C                  1.78362511    1.87777908    3.80046080
 C                  0.88907529    1.51883736    4.82902301
 C                  2.69501037    0.80837036    3.15703138
 O                  3.32271392    1.12544648    2.17255391
 O                  2.80739776   -0.40727780    3.58330733
 O                  2.58231583    3.62060752    2.43004825
 H                 -0.69522705    2.21033546    6.13049172
 H                 -0.60451577    4.49343448    5.31121661
 H                  0.93710894    5.13734884    3.54815258
 H                  0.85225451    0.51158614    5.19111277
 C                  3.02867715    3.56306935   -3.75550421
 C                  1.75844727    3.30869085   -3.45971385
 C                  1.29629996    3.26879663   -2.10087129
 C                  2.23832119    3.53703488   -1.09425322
 C                  3.59525545    3.60832330   -1.40396770
 C                  3.99523012    3.71991845   -2.71836190
 C                  4.61396344    3.57314521   -0.29276006
 O                  4.31595949    3.12470435    0.81720683
 O                  5.83543071    4.10733685   -0.41240106
 O                  2.01864049    3.79525094    0.11258972
 H                  3.32835570    3.67621298   -4.79224769
 H                  1.02667101    3.07594194   -4.23643344
 H                  0.28432441    3.10563368   -1.85491213
 H                  4.99869979    3.96613004   -2.98763995
 H                  3.97952139   -0.51833854   -1.59486322
 H                  6.48265397    4.05113896    0.26637140
 H                  3.00773084   -1.13292175    2.95075642
 H                  2.40810878    4.52209877    2.05439351
 H                  2.10639408    4.67168065    0.18025696
 H                  0.26100096    2.46071017    1.37267353

