55
Molecule with added oxygen and hydrogen atoms
Fe        -0.00025       -0.00003        0.00002
O         -0.09691        1.81472       -1.06251
H         -0.11013        1.90612       -2.01534
O          2.12450        0.09559       -0.02708
H          2.72070       -0.41329        0.52224
O         -0.02510        1.09020        1.76825
H         -0.80668        1.37811        2.24134
O          0.09692       -1.81480        1.06241
H          0.13188       -2.69268        0.68240
O         -2.12470       -0.09536        0.02707
H         -2.72073        0.41192       -0.52392
O          0.02593       -1.09030       -1.76818
H          0.80835       -1.37764       -2.24023
H         -0.73874       -1.45043       -2.21890
H          2.65975        0.65497       -0.58992
H         -0.13465        2.69252       -0.68256
H         -2.66017       -0.65294        0.59150
H          0.74043        1.44980        2.21793
H          0.11145       -1.90623        2.01521
O 1.7985341896633227 1.3157894736869872e-05 4.124985789473684
H 2.698534189663323 1.3157894736869872e-05 4.124985789473684
H 1.5055228506518816 0.850979875934122 4.124985789473684
O -2.1946591419821324 -2.010563590215823 3.3749857894736843
H -1.2946591419821325 -2.010563590215823 3.3749857894736843
H -2.4876704809935735 -1.159596872176438 3.3749857894736843
O 0.31964257814434305 3.6410660082311472 2.624985789473684
H 1.219642578144343 3.6410660082311472 2.624985789473684
H 0.02663123913290205 4.492032726270533 2.624985789473684
O 2.4890790085867756 -3.246422640780165 1.874985789473684
H 3.3890790085867755 -3.246422640780165 1.874985789473684
H 2.1960676695753345 -2.39545592274078 1.874985789473684
O -4.290403927168026 0.7589424250523786 1.124985789473684
H -3.3904039271680264 0.7589424250523786 1.124985789473684
H -4.583415266179467 1.6099091430917638 1.124985789473684
O 3.783789550448206 2.406888408435695 0.3749857894736845
H 4.683789550448206 2.406888408435695 0.3749857894736845
H 3.490778211436765 3.2578551264750804 0.3749857894736845
O -1.1640586195953089 -4.330589090703679 -0.37501421052631556
H -0.26405861959530885 -4.330589090703679 -0.37501421052631556
H -1.45706995860675 -3.479622372664294 -0.37501421052631556
O -2.008123516301935 3.866720268365147 -1.1250142105263155
H -1.108123516301935 3.866720268365147 -1.1250142105263155
H -2.301134855313376 4.717686986404532 -1.1250142105263155
O 3.8426419702008783 -1.403277967756929 -1.8750142105263166
H 4.742641970200879 -1.403277967756929 -1.8750142105263166
H 3.5496306311894372 -0.5523112497175438 -1.8750142105263166
O -3.3784298962839334 -1.3945937837361477 -2.625014210526315
H -2.4784298962839335 -1.3945937837361477 -2.625014210526315
H -3.6714412352953745 -0.5436270656967626 -2.625014210526315
O 1.2616623526445063 2.695904251871138 -3.3750142105263157
H 2.1616623526445062 2.695904251871138 -3.3750142105263157
H 0.9686510136330653 3.5468709699105228 -3.3750142105263157
O 0.5383404902423644 -1.715990729575232 -4.125014210526316
H 1.4383404902423644 -1.715990729575232 -4.125014210526316
H 0.24532915123092341 -0.8650240115358467 -4.125014210526316
