55
Molecule with added oxygen and hydrogen atoms
Fe         0.00016        0.00004       -0.00001
O          0.25926       -0.38143       -1.97803
H         -0.26420       -0.99121       -2.51488
O          1.28540       -1.50463        0.45825
H          1.54714       -1.78150        1.34644
O          1.55194        1.30983       -0.04803
H          1.49515        2.25580       -0.23766
O         -0.26073        0.37867        1.97837
H         -0.92975       -0.01801        2.55203
O         -1.28349        1.50640       -0.45767
H         -1.54404        1.78494       -1.34569
O         -1.55267       -1.30892        0.04711
H         -1.49711       -2.25495        0.23680
H         -2.48173       -1.09842       -0.11592
H          1.74615       -2.07406       -0.17223
H          0.92798        0.01318       -2.55346
H         -1.74395        2.07561        0.17322
H          2.48138        1.10035        0.11413
H          0.26128        0.98787        2.51730
O 1.6852188460649833 -2.3157894736841893e-05 3.865541222441974
H 2.585218846064983 -2.3157894736841893e-05 3.865541222441974
H 1.3922075070535422 0.8509435601446483 3.865541222441974
O -2.056802662029806 -1.88413464718363 3.162716215490802
H -1.156802662029806 -1.88413464718363 3.162716215490802
H -2.349814001041247 -1.0331679291442448 3.162716215490802
O 0.2993495032038402 3.412007501901628 2.4598912085396294
H 1.1993495032038402 3.412007501901628 2.4598912085396294
H 0.006338164192399187 4.262974219941013 2.4598912085396294
O 2.332328402278279 -3.0422581749217 1.7570662015884573
H 3.232328402278279 -3.0422581749217 1.7570662015884573
H 2.039317063266838 -2.1912914568823147 1.7570662015884573
O -4.020725119651352 0.71116946539262 1.054241194637285
H -3.1207251196513517 0.71116946539262 1.054241194637285
H -4.313736458662793 1.5621361834320053 1.054241194637285
O 3.5456016630563 2.2554596616946676 0.35141618768611277
H 4.4456016630563004 2.2554596616946676 0.35141618768611277
H 3.252590324044859 3.106426379734053 0.35141618768611277
O -1.0910269029492712 -4.058230565193329 -0.3514088192650596
H -0.19102690294927116 -4.058230565193329 -0.3514088192650596
H -1.3840382419607122 -3.2072638471539436 -0.3514088192650596
O -1.8820001254760375 3.623468111164614 -1.0542338262162316
H -0.9820001254760374 3.623468111164614 -1.0542338262162316
H -2.1750114644874783 4.474434829203999 -1.0542338262162316
O 3.600752266151987 -1.3150472847489376 -1.7570588331674049
H 4.500752266151987 -1.3150472847489376 -1.7570588331674049
H 3.307740927140546 -0.46408056670955244 -1.7570588331674049
O -3.1661142468574837 -1.3069093358225765 -2.459883840118576
H -2.2661142468574837 -1.3069093358225765 -2.459883840118576
H -3.4591255858689247 -0.45594261778319134 -2.459883840118576
O 1.182116242618799 2.526296411256687 -3.1627088470697493
H 2.082116242618799 2.526296411256687 -3.1627088470697493
H 0.8891049036073579 3.3772631292960718 -3.1627088470697493
O 0.5042913186578386 -1.6080904167471632 -3.8655338540209216
H 1.4042913186578385 -1.6080904167471632 -3.8655338540209216
H 0.2112799796463976 -0.7571236987077781 -3.8655338540209216
