109
Molecule with added oxygen and hydrogen atoms
Fe         0.00001        0.00002       -0.00001
O         -1.86152        0.33187       -0.89441
H         -2.03598        0.85182       -1.70302
O         -0.25086        1.72179        1.16081
H          0.37652        2.07730        1.82008
O         -0.92069       -1.14053        1.49211
H         -1.08319       -2.10380        1.47327
O          1.86130       -0.33220        0.89472
H          2.72547        0.00254        0.58523
O          0.25100       -1.72152       -1.16117
H         -0.37647       -2.07708       -1.82032
O          0.92075        1.14057       -1.49205
H          1.08325        2.10383       -1.47316
H          1.27176        0.81371       -2.34327
H         -1.01823        2.32651        1.14950
H         -2.72552       -0.00295       -0.58453
H          1.01851       -2.32605       -1.15014
H         -1.27165       -0.81363        2.34335
H          2.03541       -0.85241        1.70324
O 1.7984299791370069 -1.1052631578937971e-05 4.125012105263158
H 2.698429979137007 -1.1052631578937971e-05 4.125012105263158
H 1.5054186401255658 0.8509556654078062 4.125012105263158
O -2.1947633525084482 -2.010587800742139 3.375012105263158
H -1.2947633525084483 -2.010587800742139 3.375012105263158
H -2.4877746915198893 -1.1596210827027538 3.375012105263158
O 0.3195383676180273 3.6410417977048315 2.6250121052631576
H 1.2195383676180274 3.6410417977048315 2.6250121052631576
H 0.02652702860658629 4.4920085157442164 2.6250121052631576
O 2.4889747980604597 -3.2464468513064806 1.8750121052631579
H 3.3889747980604596 -3.2464468513064806 1.8750121052631579
H 2.1959634590490187 -2.395480133267095 1.8750121052631579
O -4.290508137694342 0.7589182145260628 1.1250121052631579
H -3.3905081376943422 0.7589182145260628 1.1250121052631579
H -4.583519476705783 1.609884932565448 1.1250121052631579
O 3.7836853399218904 2.406864197909379 0.3750121052631582
H 4.68368533992189 2.406864197909379 0.3750121052631582
H 3.4906740009104493 3.257830915948764 0.3750121052631582
O -1.1641628301216247 -4.330613301229994 -0.37498789473684185
H -0.26416283012162467 -4.330613301229994 -0.37498789473684185
H -1.4571741691330657 -3.4796465831906094 -0.37498789473684185
O -2.0082277268282507 3.866696057838831 -1.1249878947368417
H -1.1082277268282508 3.866696057838831 -1.1249878947368417
H -2.3012390658396917 4.717662775878217 -1.1249878947368417
O 3.8425377596745625 -1.4033021782832447 -1.8749878947368428
H 4.742537759674563 -1.4033021782832447 -1.8749878947368428
H 3.5495264206631214 -0.5523354602438595 -1.8749878947368428
O -3.3785341068102492 -1.3946179942624635 -2.624987894736841
H -2.4785341068102493 -1.3946179942624635 -2.624987894736841
H -3.6715454458216903 -0.5436512762230783 -2.624987894736841
O 1.2615581421181905 2.695880041344822 -3.374987894736842
H 2.1615581421181904 2.695880041344822 -3.374987894736842
H 0.9685468031067495 3.5468467593842075 -3.374987894736842
O 0.5382362797160487 -1.7160149401015476 -4.124987894736842
H 1.4382362797160488 -1.7160149401015476 -4.124987894736842
H 0.2452249407046077 -0.8650482220621625 -4.124987894736842
O 2.323162643328221 0.14572380343221922 6.1389009941520465
H 3.2231626433282208 0.14572380343221922 6.1389009941520465
H 2.03015130431678 0.9966905214716044 6.1389009941520465
O -2.4625733929625606 -2.281319706792698 5.416678771929825
H -1.5625733929625607 -2.281319706792698 5.416678771929825
H -2.7555847319740017 -1.4303529887533128 5.416678771929825
O 0.5798488170727611 4.624306657195647 4.694456549707603
H 1.479848817072761 4.624306657195647 4.694456549707603
H 0.28683747806132015 5.475273375235032 4.694456549707603
O 3.3172436054506176 -3.9373848869235792 3.972234327485381
H 4.2172436054506175 -3.9373848869235792 3.972234327485381
H 3.0242322664391765 -3.086418168884194 3.972234327485381
O -5.356314309828654 1.1262227638420685 3.2500121052631594
H -4.456314309828653 1.1262227638420685 3.2500121052631594
H -5.649325648840095 1.9771894818814537 3.2500121052631594
O 5.2395027856797025 3.3598394069398716 2.527789883040936
H 6.139502785679703 3.3598394069398716 2.527789883040936
H 4.9464914466682615 4.210806124979257 2.527789883040936
O -1.4342193603444664 -5.884389275939971 1.805567660818714
H -0.5342193603444664 -5.884389275939971 1.805567660818714
H -1.7272306993559075 -5.033422557900586 1.805567660818714
O -2.767192458930482 5.8334574901337035 1.0833454385964918
H -1.8671924589304822 5.8334574901337035 1.0833454385964918
H -3.060203797941923 6.6844242081730885 1.0833454385964918
O 6.282959439716032 -2.08058366415096 0.3611232163742699
H 7.182959439716033 -2.08058366415096 0.3611232163742699
H 5.989948100704591 -1.2296169461115747 0.3611232163742699
O -5.812166465348253 -2.3305625533766348 -0.36109900584795224
H -4.912166465348252 -2.3305625533766348 -0.36109900584795224
H -6.105177804359694 -1.4795958353372496 -0.36109900584795224
O 2.903266115419448 5.950653040386114 -1.0833212280701745
H 3.803266115419448 5.950653040386114 -1.0833212280701745
H 2.610254776408007 6.801619758425499 -1.0833212280701745
O 2.055587259957297 -5.812262868211534 -1.8055434502923966
H 2.955587259957297 -5.812262868211534 -1.8055434502923966
H 1.762575920945856 -4.961296150172149 -1.8055434502923966
O -4.9943873218316694 3.1483280509098694 -2.5277656725146187
H -4.094387321831669 3.1483280509098694 -2.5277656725146187
H -5.2873986608431105 3.9992947689492544 -2.5277656725146187
O 5.684669702379492 1.3544149249649324 -3.2499878947368424
H 6.584669702379492 1.3544149249649324 -3.2499878947368424
H 5.391658363368051 2.2053816430043174 -3.2499878947368424
O -2.7722642020294503 -4.063241236794882 -3.9722101169590633
H -1.8722642020294504 -4.063241236794882 -3.9722101169590633
H -3.0652755410408914 -3.212274518755497 -3.9722101169590633
O -0.39095748413691955 4.604242287239151 -4.6944323391812866
H 0.5090425158630805 4.604242287239151 -4.6944323391812866
H -0.6839688231483605 5.455209005278536 -4.6944323391812866
O 2.934192131535125 -2.1697807726952423 -5.416654561403508
H 3.834192131535125 -2.1697807726952423 -5.416654561403508
H 2.641180792523684 -1.318814054655857 -5.416654561403508
O -1.9477373065741728 0.057453963676029965 -6.13887678362573
H -1.0477373065741729 0.057453963676029965 -6.13887678362573
H -2.240748645585614 0.9084206817154151 -6.13887678362573
