55
Molecule with added oxygen and hydrogen atoms
Fe         0.00015        0.00003        0.00009
O         -1.44188        0.06421        1.47805
H         -1.45962       -0.46557        2.29377
O         -1.07500       -1.46397       -0.98422
H         -0.83178       -1.89807       -1.82034
O         -1.01745        1.45640       -1.05428
H         -0.89690        2.41875       -0.97655
O          1.44126       -0.06204       -1.47874
H          2.22987       -0.63168       -1.49582
O          1.07536        1.46280        0.98599
H          0.83029        1.89832        1.82082
O          1.01734       -1.45750        1.05293
H          0.89397       -2.41954        0.97603
H          1.71073       -1.31320        1.72003
H         -1.92129       -1.85074       -0.69983
H         -2.23194        0.63133        1.49182
H          1.92376        1.84694        0.70448
H         -1.70855        1.31054       -1.72345
H          1.46047        0.47293       -2.29123
O 1.7018978398722786 -3.1578947368306554e-06 3.9036949251494053
H 2.6018978398722785 -3.1578947368306554e-06 3.9036949251494053
H 1.4088865008608376 0.8509635601446484 3.9036949251494053
O -2.077084734555927 -1.9027245802330566 3.1939279052657814
H -1.177084734555927 -1.9027245802330566 3.1939279052657814
H -2.370096073567368 -1.0517578621936714 3.1939279052657814
O 0.3023398507539902 3.4457291498679945 2.484160885382157
H 1.2023398507539902 3.4457291498679945 2.484160885382157
H 0.009328511742549228 4.2966958679073795 2.484160885382157
O 2.3553990908367797 -3.0722872406533996 1.7743938654985334
H 3.2553990908367796 -3.0722872406533996 1.7743938654985334
H 2.0623877518253386 -2.2213205226140147 1.7743938654985334
O -4.060405442046643 0.7182141277758525 1.0646268456149095
H -3.160405442046643 0.7182141277758525 1.0646268456149095
H -4.353416781058084 1.5691808458152376 1.0646268456149095
O 3.5806562147153125 2.277757740516072 0.3548598257312859
H 4.480656214715313 2.277757740516072 0.3548598257312859
H 3.2876448757038714 3.1287244585554568 0.3548598257312859
O -1.101769719269258 -4.098294694280094 -0.35490719415233807
H -0.2017697192692579 -4.098294694280094 -0.35490719415233807
H -1.394781058280699 -3.247327976240709 -0.35490719415233807
O -1.9005556210343784 3.659278418853798 -1.0646742140359617
H -1.0005556210343785 3.659278418853798 -1.0646742140359617
H -2.1935669600458194 4.510245136893183 -1.0646742140359617
O 3.636351556823038 -1.3280161716052952 -1.7744412339195865
H 4.536351556823038 -1.3280161716052952 -1.7744412339195865
H 3.3433402178115967 -0.47704945356591 -1.7744412339195865
O -3.197353321897499 -1.319797841721894 -2.484208253803209
H -2.297353321897499 -1.319797841721894 -2.484208253803209
H -3.49036466090894 -0.4688311236825089 -2.484208253803209
O 1.1938259414452228 2.5512696257085072 -3.1939752736868336
H 2.093825941445223 2.5512696257085072 -3.1939752736868336
H 0.9008146024337818 3.4022363437478926 -3.1939752736868336
O 0.5093059378534347 -1.6239537783191011 -3.903742293570458
H 1.4093059378534347 -1.6239537783191011 -3.903742293570458
H 0.2162945988419937 -0.772987060279716 -3.903742293570458
