109
Molecule with added oxygen and hydrogen atoms
Fe         0.00000       -0.00000       -0.00000
O         -0.80227       -1.68521       -0.82554
H         -1.56604       -2.19172       -0.48413
O          1.26200       -1.14893        1.11925
H          1.92990       -0.82580        1.75640
O          1.38951        0.07049       -1.49319
H          1.29832        0.53348       -2.34979
O          0.80225        1.68522        0.82554
H          0.49489        2.13741        1.63641
O         -1.26200        1.14892       -1.11926
H         -1.92993        0.82577       -1.75637
O         -1.38950       -0.07050        1.49320
H         -1.29828       -0.53348        2.34981
H         -2.27108        0.35283        1.48601
H          1.31144       -2.12567        1.11927
H         -0.49494       -2.13738       -1.63644
H         -1.31142        2.12568       -1.11931
H          2.27110       -0.35283       -1.48598
H          1.56604        2.19172        0.48415
O 1.7984362949264807 4.674623261579606e-17 4.125001578947368
H 2.6984362949264806 4.674623261579606e-17 4.125001578947368
H 1.5054249559150397 0.8509667180393852 4.125001578947368
O -2.1947570367189746 -2.01057674811056 3.3750015789473684
H -1.2947570367189747 -2.01057674811056 3.3750015789473684
H -2.4877683757304156 -1.159610030071175 3.3750015789473684
O 0.319544683407501 3.6410528503364104 2.625001578947368
H 1.219544683407501 3.6410528503364104 2.625001578947368
H 0.026533344396059977 4.492019568375795 2.625001578947368
O 2.4889811138499334 -3.2464357986749017 1.8750015789473684
H 3.3889811138499333 -3.2464357986749017 1.8750015789473684
H 2.1959697748384923 -2.3954690806355163 1.8750015789473684
O -4.2905018219048685 0.7589292671576418 1.1250015789473684
H -3.3905018219048686 0.7589292671576418 1.1250015789473684
H -4.58351316091631 1.609895985197027 1.1250015789473684
O 3.783691655711364 2.406875250540958 0.37500157894736874
H 4.683691655711364 2.406875250540958 0.37500157894736874
H 3.490680316699923 3.257841968580343 0.37500157894736874
O -1.1641565143321508 -4.3306022485984155 -0.3749984210526313
H -0.2641565143321508 -4.3306022485984155 -0.3749984210526313
H -1.457167853343592 -3.4796355305590305 -0.3749984210526313
O -2.008221411038777 3.86670711047041 -1.1249984210526311
H -1.1082214110387771 3.86670711047041 -1.1249984210526311
H -2.301232750050218 4.717673828509795 -1.1249984210526311
O 3.842544075464036 -1.4032911256516658 -1.8749984210526323
H 4.7425440754640364 -1.4032911256516658 -1.8749984210526323
H 3.549532736452595 -0.5523244076122806 -1.8749984210526323
O -3.3785277910207756 -1.3946069416308846 -2.6249984210526307
H -2.4785277910207757 -1.3946069416308846 -2.6249984210526307
H -3.6715391300322167 -0.5436402235914994 -2.6249984210526307
O 1.2615644579076644 2.695891093976401 -3.3749984210526316
H 2.1615644579076645 2.695891093976401 -3.3749984210526316
H 0.9685531188962233 3.5468578120157863 -3.3749984210526316
O 0.5382425955055223 -1.7160038874699688 -4.124998421052632
H 1.4382425955055225 -1.7160038874699688 -4.124998421052632
H 0.24523125649408134 -0.8650371694305836 -4.124998421052632
O 2.3231689591176945 0.1457348560637981 6.138890467836258
H 3.2231689591176944 0.1457348560637981 6.138890467836258
H 2.0301576201062534 0.9967015741031833 6.138890467836258
O -2.462567077173087 -2.281308654161119 5.416668245614036
H -1.562567077173087 -2.281308654161119 5.416668245614036
H -2.755578416184528 -1.430341936121734 5.416668245614036
O 0.5798551328622348 4.624317709827226 4.694446023391814
H 1.4798551328622347 4.624317709827226 4.694446023391814
H 0.2868437938507938 5.475284427866611 4.694446023391814
O 3.317249921240091 -3.9373738342920004 3.972223801169591
H 4.217249921240091 -3.9373738342920004 3.972223801169591
H 3.02423858222865 -3.086407116252615 3.972223801169591
O -5.35630799403918 1.1262338164736474 3.2500015789473697
H -4.45630799403918 1.1262338164736474 3.2500015789473697
H -5.649319333050621 1.9772005345130326 3.2500015789473697
O 5.239509101469176 3.3598504595714505 2.5277793567251465
H 6.1395091014691765 3.3598504595714505 2.5277793567251465
H 4.946497762457735 4.210817177610836 2.5277793567251465
O -1.4342130445549928 -5.884378223308392 1.8055571345029244
H -0.5342130445549927 -5.884378223308392 1.8055571345029244
H -1.7272243835664338 -5.033411505269007 1.8055571345029244
O -2.7671861431410085 5.833468542765283 1.0833349122807023
H -1.8671861431410086 5.833468542765283 1.0833349122807023
H -3.0601974821524496 6.684435260804668 1.0833349122807023
O 6.282965755505506 -2.080572611519381 0.36111269005848035
H 7.182965755505506 -2.080572611519381 0.36111269005848035
H 5.989954416494065 -1.2296058934799958 0.36111269005848035
O -5.812160149558779 -2.330551500745056 -0.3611095321637418
H -4.912160149558779 -2.330551500745056 -0.3611095321637418
H -6.10517148857022 -1.4795847827056707 -0.3611095321637418
O 2.9032724312089218 5.950664093017693 -1.083331754385964
H 3.8032724312089217 5.950664093017693 -1.083331754385964
H 2.6102610921974807 6.801630811057078 -1.083331754385964
O 2.0555935757467707 -5.812251815579955 -1.805553976608186
H 2.9555935757467706 -5.812251815579955 -1.805553976608186
H 1.7625822367353297 -4.9612850975405705 -1.805553976608186
O -4.994381006042196 3.1483391035414483 -2.5277761988304084
H -4.0943810060421955 3.1483391035414483 -2.5277761988304084
H -5.287392345053637 3.9993058215808333 -2.5277761988304084
O 5.6846760181689655 1.3544259775965113 -3.249998421052632
H 6.584676018168966 1.3544259775965113 -3.249998421052632
H 5.3916646791575245 2.2053926956358962 -3.249998421052632
O -2.7722578862399767 -4.063230184163302 -3.972220643274853
H -1.8722578862399768 -4.063230184163302 -3.972220643274853
H -3.0652692252514178 -3.2122634661239173 -3.972220643274853
O -0.3909511683474459 4.604253339870731 -4.694442865497075
H 0.5090488316525541 4.604253339870731 -4.694442865497075
H -0.6839625073588869 5.4552200579101155 -4.694442865497075
O 2.9341984473245986 -2.1697697200636634 -5.416665087719297
H 3.8341984473245985 -2.1697697200636634 -5.416665087719297
H 2.6411871083131575 -1.3188030020242782 -5.416665087719297
O -1.9477309907846991 0.05746501630760885 -6.138887309941519
H -1.0477309907846992 0.05746501630760885 -6.138887309941519
H -2.24074232979614 0.908431734346994 -6.138887309941519
