55
Molecule with added oxygen and hydrogen atoms
Fe         0.00016        0.00004       -0.00001
O          0.25926       -0.38143       -1.97803
H         -0.26420       -0.99121       -2.51488
O          1.28540       -1.50463        0.45825
H          1.54714       -1.78150        1.34644
O          1.55194        1.30983       -0.04803
H          1.49515        2.25580       -0.23766
O         -0.26073        0.37867        1.97837
H         -0.92975       -0.01801        2.55203
O         -1.28349        1.50640       -0.45767
H         -1.54404        1.78494       -1.34569
O         -1.55267       -1.30892        0.04711
H         -1.49711       -2.25495        0.23680
H         -2.48173       -1.09842       -0.11592
H          1.74615       -2.07406       -0.17223
H          0.92798        0.01318       -2.55346
H         -1.74395        2.07561        0.17322
H          2.48138        1.10035        0.11413
H          0.26128        0.98787        2.51730
O 1.7983405054527963 -2.3157894736841893e-05 4.125003684210526
H 2.6983405054527965 -2.3157894736841893e-05 4.125003684210526
H 1.5053291664413553 0.8509435601446483 4.125003684210526
O -2.1948528261926588 -2.010599906005297 3.3750036842105264
H -1.2948528261926588 -2.010599906005297 3.3750036842105264
H -2.4878641652041 -1.1596331879659119 3.3750036842105264
O 0.3194488939338167 3.6410296924416734 2.625003684210526
H 1.2194488939338166 3.6410296924416734 2.625003684210526
H 0.026437554922375706 4.491996410481058 2.625003684210526
O 2.488885324376249 -3.2464589565696387 1.8750036842105264
H 3.388885324376249 -3.2464589565696387 1.8750036842105264
H 2.195873985364808 -2.3954922385302533 1.8750036842105264
O -4.290597611378553 0.7589061092629049 1.1250036842105264
H -3.390597611378553 0.7589061092629049 1.1250036842105264
H -4.583608950389994 1.60987282730229 1.1250036842105264
O 3.78359586623768 2.406852092646221 0.3750036842105266
H 4.68359586623768 2.406852092646221 0.3750036842105266
H 3.490584527226239 3.257818810685606 0.3750036842105266
O -1.1642523038058352 -4.330625406493152 -0.37499631578947346
H -0.2642523038058352 -4.330625406493152 -0.37499631578947346
H -1.4572636428172763 -3.4796586884537675 -0.37499631578947346
O -2.008317200512461 3.866683952575673 -1.1249963157894731
H -1.1083172005124613 3.866683952575673 -1.1249963157894731
H -2.3013285395239023 4.7176506706150585 -1.1249963157894731
O 3.842448285990352 -1.4033142835464028 -1.8749963157894742
H 4.742448285990352 -1.4033142835464028 -1.8749963157894742
H 3.549436946978911 -0.5523475655070176 -1.8749963157894742
O -3.3786235804944598 -1.3946300995256216 -2.6249963157894727
H -2.47862358049446 -1.3946300995256216 -2.6249963157894727
H -3.671634919505901 -0.5436633814862364 -2.6249963157894727
O 1.26146866843398 2.695867936081664 -3.3749963157894736
H 2.16146866843398 2.695867936081664 -3.3749963157894736
H 0.9684573294225389 3.5468346541210494 -3.3749963157894736
O 0.5381468060318382 -1.7160270453647057 -4.124996315789474
H 1.4381468060318383 -1.7160270453647057 -4.124996315789474
H 0.24513546702039718 -0.8650603273253206 -4.124996315789474
