109
Molecule with added oxygen and hydrogen atoms
Fe         0.00005       -0.00003        0.00001
O         -0.29045        1.85715       -0.86395
H          0.21181        2.67084       -0.65326
O         -1.37577        0.47002        1.47155
H         -1.64380       -0.11256        2.21150
O         -1.51779       -0.78129       -1.16861
H         -1.40933       -1.17706       -2.05763
O          0.29018       -1.85749        0.86332
H          0.95399       -2.07161        1.55053
O          1.37614       -0.46916       -1.47149
H          1.64609        0.11509       -2.20942
O          1.51758        0.78084        1.16915
H          1.40859        1.17743        2.05774
H          2.46575        0.81555        0.92723
H         -1.86791        1.31326        1.54563
H         -0.95334        2.07032       -1.55234
H          1.86671       -1.31314       -1.54756
H         -2.46566       -0.81719       -0.92571
H         -0.21331       -2.67057        0.65318
O 1.798412084400165 2.1052631578921677e-05 4.124993157894737
H 2.698412084400165 2.1052631578921677e-05 4.124993157894737
H 1.505400745388724 0.8509877706709641 4.124993157894737
O -2.1947812472452903 -2.010555695478981 3.3749931578947368
H -1.2947812472452904 -2.010555695478981 3.3749931578947368
H -2.4877925862567314 -1.159588977439596 3.3749931578947368
O 0.3195204728811852 3.6410739029679893 2.6249931578947363
H 1.2195204728811853 3.6410739029679893 2.6249931578947363
H 0.026509133869744184 4.492040621007375 2.6249931578947363
O 2.4889569033236176 -3.246414746043323 1.8749931578947368
H 3.3889569033236175 -3.246414746043323 1.8749931578947368
H 2.1959455643121766 -2.395448028003938 1.8749931578947368
O -4.290526032431185 0.7589503197892207 1.1249931578947368
H -3.3905260324311848 0.7589503197892207 1.1249931578947368
H -4.583537371442626 1.6099170378286058 1.1249931578947368
O 3.7836674451850483 2.406896303172537 0.3749931578947371
H 4.683667445185049 2.406896303172537 0.3749931578947371
H 3.490656106173607 3.2578630212119224 0.3749931578947371
O -1.1641807248584666 -4.330581195966836 -0.37500684210526297
H -0.26418072485846655 -4.330581195966836 -0.37500684210526297
H -1.4571920638699076 -3.479614477927451 -0.37500684210526297
O -2.008245621565093 3.866728163101989 -1.1250068421052628
H -1.1082456215650929 3.866728163101989 -1.1250068421052628
H -2.301256960576534 4.717694881141374 -1.1250068421052628
O 3.8425198649377204 -1.4032700730200869 -1.875006842105264
H 4.74251986493772 -1.4032700730200869 -1.875006842105264
H 3.5495085259262793 -0.5523033549807017 -1.875006842105264
O -3.3785520015470913 -1.3945858889993057 -2.6250068421052624
H -2.4785520015470914 -1.3945858889993057 -2.6250068421052624
H -3.6715633405585324 -0.5436191709599205 -2.6250068421052624
O 1.2615402473813486 2.69591214660798 -3.3750068421052632
H 2.1615402473813488 2.69591214660798 -3.3750068421052632
H 0.9685289083699076 3.546878864647365 -3.3750068421052632
O 0.5382183849792066 -1.7159828348383899 -4.125006842105263
H 1.4382183849792067 -1.7159828348383899 -4.125006842105263
H 0.2452070459677656 -0.8650161167990047 -4.125006842105263
O 2.3231447485913788 0.14575590869537708 6.138882046783625
H 3.2231447485913787 0.14575590869537708 6.138882046783625
H 2.0301334095799377 0.9967226267347622 6.138882046783625
O -2.4625912876994027 -2.2812876015295402 5.416659824561403
H -1.5625912876994028 -2.2812876015295402 5.416659824561403
H -2.7556026267108438 -1.430320883490155 5.416659824561403
O 0.579830922335919 4.624338762458805 4.694437602339181
H 1.479830922335919 4.624338762458805 4.694437602339181
H 0.28681958332447804 5.47530548049819 4.694437602339181
O 3.3172257107137755 -3.9373527816604215 3.9722153801169586
H 4.217225710713776 -3.9373527816604215 3.9722153801169586
H 3.0242143717023344 -3.0863860636210365 3.9722153801169586
O -5.356332204565495 1.1262548691052263 3.249993157894737
H -4.456332204565495 1.1262548691052263 3.249993157894737
H -5.649343543576936 1.9772215871446115 3.249993157894737
O 5.239484890942861 3.3598715122030294 2.527770935672514
H 6.139484890942861 3.3598715122030294 2.527770935672514
H 4.94647355193142 4.210838230242414 2.527770935672514
O -1.4342372550813085 -5.884357170676813 1.805548713450292
H -0.5342372550813085 -5.884357170676813 1.805548713450292
H -1.7272485940927496 -5.033390452637428 1.805548713450292
O -2.7672103536673243 5.833489595396862 1.08332649122807
H -1.8672103536673244 5.833489595396862 1.08332649122807
H -3.0602216926787653 6.684456313436247 1.08332649122807
O 6.282941544979191 -2.080551558887802 0.3611042690058479
H 7.182941544979191 -2.080551558887802 0.3611042690058479
H 5.98993020596775 -1.229584840848417 0.3611042690058479
O -5.812184360085094 -2.330530448113477 -0.36111795321637424
H -4.912184360085094 -2.330530448113477 -0.36111795321637424
H -6.1051956990965355 -1.4795637300740918 -0.36111795321637424
O 2.903248220682606 5.950685145649272 -1.0833401754385963
H 3.803248220682606 5.950685145649272 -1.0833401754385963
H 2.610236881671165 6.801651863688657 -1.0833401754385963
O 2.055569365220455 -5.812230762948376 -1.8055623976608184
H 2.955569365220455 -5.812230762948376 -1.8055623976608184
H 1.762558026209014 -4.961264044908991 -1.8055623976608184
O -4.994405216568511 3.1483601561730272 -2.527784619883041
H -4.094405216568511 3.1483601561730272 -2.527784619883041
H -5.287416555579952 3.9993268742124126 -2.527784619883041
O 5.68465180764265 1.3544470302280902 -3.2500068421052646
H 6.584651807642651 1.3544470302280902 -3.2500068421052646
H 5.391640468631209 2.2054137482674756 -3.2500068421052646
O -2.7722820967662924 -4.063209131531724 -3.9722290643274856
H -1.8722820967662925 -4.063209131531724 -3.9722290643274856
H -3.0652934357777335 -3.212242413492339 -3.9722290643274856
O -0.3909753788737617 4.604274392502309 -4.694451286549708
H 0.5090246211262384 4.604274392502309 -4.694451286549708
H -0.6839867178852027 5.455241110541694 -4.694451286549708
O 2.934174236798283 -2.1697486674320845 -5.41667350877193
H 3.8341742367982827 -2.1697486674320845 -5.41667350877193
H 2.6411628977868418 -1.3187819493926993 -5.41667350877193
O -1.9477552013110149 0.057486068939187826 -6.138895730994152
H -1.047755201311015 0.057486068939187826 -6.138895730994152
H -2.240766540322456 0.908452786978573 -6.138895730994152
