58
Molecule with added oxygen and hydrogen atoms
  Fe         -0.78332295796823      0.71195844574750      0.03281778822236
  O          -1.33974661297750      2.76947358860782     -0.26209330556844
  H          -1.45118390081794      3.22309030048643     -1.10837080348086
  O           1.29624021335043      1.28304469378080      0.06242239875281
  H           2.05768623179507      0.69305534101954     -0.01730153626499
  O          -0.86990498434233      0.93465443851506      2.14152735439727
  H          -1.63801755013704      0.77125393670486      2.70569644590966
  O          -0.22417144534927     -1.34509050689826      0.32493595034014
  H          -0.04282829853544     -1.99081787771600     -0.37112324103270
  O          -2.86679206990509      0.14745029940332      0.00215443633535
  H          -3.21997523045279     -0.74842181952988     -0.08124239575165
  O          -0.69854631603235      0.48884639335602     -2.07662291249344
  H           0.07096519177112      0.64874793677608     -2.64003422183336
  H          -1.43439785224095      0.25164911207187     -2.65755171221521
  H           1.64269651568700      2.18163818164851      0.14441330633127
  H          -1.53012985676057      3.41297242813433      0.43367382261697
  H          -3.62482618645954      0.74213420853688      0.07966154490612
  H          -0.13201981403010      1.17165872340737      2.71989466899277
  H          -0.12324264659445     -1.80121805405229      1.17118782183590
O 0.8855665496601618 0.7129515668421034 4.040711696973858
H 1.7855665496601618 0.7129515668421034 4.040711696973858
H 0.5925552106487209 1.5639182848814885 4.040711696973858
O -2.8310515527236713 -1.1615671635898759 3.372558391425583
H -1.9310515527236713 -1.1615671635898759 3.372558391425583
H -3.1240628917351123 -0.3106004455504907 3.372558391425583
O -0.4855351146964314 4.123111030373582 2.7044050858773083
H 0.4144648853035686 4.123111030373582 2.7044050858773083
H -0.7785464537078723 4.974077748412967 2.7044050858773083
O 1.559352136772484 -2.3446015919120704 2.0362517803290334
H 2.459352136772484 -2.3446015919120704 2.0362517803290334
H 1.266340797761043 -1.4936348738726852 2.0362517803290334
O -4.853948229217258 1.4327236367927598 1.3680984747807596
H -3.9539482292172585 1.4327236367927598 1.3680984747807596
H -5.1469595682286995 2.283690354832145 1.3680984747807596
O 2.835983888865156 3.0162085284106777 0.6999451692324842
H 3.7359838888651558 3.0162085284106777 0.6999451692324842
H 2.542972549853715 3.8671752464500626 0.6999451692324842
O -1.9122772981647338 -3.481145607710727 0.03179186368420919
H -1.0122772981647339 -3.481145607710727 0.03179186368420919
H -2.205288637176175 -2.630178889671342 0.03179186368420919
O -2.7627034822159624 4.521252181446513 -0.6363614418640657
H -1.8627034822159625 4.521252181446513 -0.6363614418640657
H -3.0557148212274035 5.372218899485898 -0.6363614418640657
O 3.0967406591660422 -0.7045869604255188 -1.304514747412341
H 3.996740659166042 -0.7045869604255188 -1.304514747412341
H 2.803729320154601 0.14637975761386635 -1.304514747412341
O -4.3460982154558865 -0.7570936669565715 -1.9726680529606158
H -3.4460982154558866 -0.7570936669565715 -1.9726680529606158
H -4.6391095544673275 0.09387305108281363 -1.9726680529606158
O 0.6661212992432438 3.8135218246553086 -2.640821358508891
H 1.5661212992432438 3.8135218246553086 -2.640821358508891
H 0.3731099602318028 4.664488542694694 -2.640821358508891
O 0.04571070325781401 -1.934900712632455 -3.3089746640571653
H 0.945710703257814 -1.934900712632455 -3.3089746640571653
H -0.24730063575362699 -1.08393399459307 -3.3089746640571653
O -2.2300510386956254 1.5504943989106388 -3.9771279696054407
H -1.3300510386956255 1.5504943989106388 -3.9771279696054407
H -2.5230623777070664 2.401461116950024 -3.9771279696054407
