58
Molecule with added oxygen and hydrogen atoms
  Fe         -0.78572180961880      0.71294017961614      0.03233255265087
  O          -1.33137910542231      2.75790305142667     -0.26295589649749
  H          -1.45635280430330      3.20477464884179     -1.10977868005766
  O           1.30122365068753      1.27121965026107      0.04731086363554
  H           2.05790991156894      0.67654848636115     -0.02883424921130
  O          -0.86199885588517      0.94234291280102      2.13843668110643
  H          -1.62518588977674      0.77182304559555      2.70527767657861
  O          -0.23835645778587     -1.33124648196443      0.32718719759135
  H          -0.06156787661810     -1.98094049993707     -0.36500443281851
  O          -2.87272342905404      0.14982377978382      0.02090244095519
  H          -3.22667897040704     -0.74367485455125     -0.07006700057461
  O          -0.70502369525716      0.48750139767868     -2.07474387669661
  H           0.05871809951989      0.66584099744706     -2.63833552128460
  H          -1.43634021526940      0.24116696923979     -2.65546403406278
  H           1.65860651531297      2.16493334714472      0.12172678546707
  H          -1.50443979409830      3.40873531622437      0.42911935758096
  H          -3.63142624711833      0.74191886028659      0.09663913708405
  H          -0.12724888825292      1.18529700876542      2.71629029884628
  H          -0.12353170822180     -1.78082804502115      1.17400610970721
O 0.8872969047384466 0.7129515668421024 4.0448645491617405
H 1.7872969047384466 0.7129515668421024 4.0448645491617405
H 0.5942855657270056 1.5639182848814874 4.0448645491617405
O -2.833171253585602 -1.1635089832157663 3.376019101582152
H -1.933171253585602 -1.1635089832157663 3.376019101582152
H -3.126182592597043 -0.3125422651763812 3.376019101582152
O -0.48522508798174924 4.126643624882343 2.707173654002564
H 0.4147749120182508 4.126643624882343 2.707173654002564
H -0.7782364269931903 4.977610342921728 2.707173654002564
O 1.5617804683795997 -2.347768920482589 2.0383282064229755
H 2.4617804683795996 -2.347768920482589 2.0383282064229755
H 1.2687691293681587 -1.496802202443204 2.0383282064229755
O -4.858163454868453 1.4334692508583355 1.369482758843388
H -3.9581634548684534 1.4334692508583355 1.369482758843388
H -5.151174793879894 2.2844359688977205 1.369482758843388
O 2.839734687167857 3.018594479267732 0.7006373112637991
H 3.7397346871678567 3.018594479267732 0.7006373112637991
H 2.5467233481564158 3.8695611973071173 0.7006373112637991
O -1.9134452379957922 -3.4854902856668426 0.031791863684210775
H -1.0134452379957923 -3.4854902856668426 0.031791863684210775
H -2.2064565770072333 -2.6345235676274577 0.031791863684210775
O -2.764752381104805 4.525197211578603 -0.6370535838953777
H -1.8647523811048052 4.525197211578603 -0.6370535838953777
H -3.057763720116246 5.376163929617988 -0.6370535838953777
O 3.1007615761962506 -0.7060553928759482 -1.3058990314749666
H 4.0007615761962505 -0.7060553928759482 -1.3058990314749666
H 2.8077502371848095 0.14491132516343697 -1.3058990314749666
O -4.349787357740872 -0.7586164912632026 -1.9747444790545545
H -3.4497873577408718 -0.7586164912632026 -1.9747444790545545
H -4.642798696752313 0.09235022677618254 -1.9747444790545545
O 0.6676243303224937 3.8167337147689278 -2.643589926634143
H 1.5676243303224937 3.8167337147689278 -2.643589926634143
H 0.3746129913110527 4.667700432808313 -2.643589926634143
O 0.04657104912307486 -1.9376436308222114 -3.312435374213731
H 0.9465710491230749 -1.9376436308222114 -3.312435374213731
H -0.24644028988836614 -1.0866769127828262 -3.312435374213731
O -2.231548161306209 1.5513620120651135 -3.9812808217933195
H -1.331548161306209 1.5513620120651135 -3.9812808217933195
H -2.52455950031765 2.4023287301044984 -3.9812808217933195
