58
Molecule with added oxygen and hydrogen atoms
  Fe         -0.78400649270196      0.71353105487946      0.03262609246935
  O          -1.33942641736777      2.76548564128770     -0.26406324295411
  H          -1.46493623163850      3.21327451637873     -1.10741817719586
  O           1.29394134712373      1.27206847491589      0.05174500282294
  H           2.04710560566938      0.67721876028357     -0.02653108518626
  O          -0.86324711300962      0.94326708610629      2.13832429437544
  H          -1.62320297483270      0.77161624672518      2.70500536714683
  O          -0.22383485616686     -1.33892187267020      0.32234510361851
  H          -0.06172975404982     -1.98609898473806     -0.37220586346964
  O          -2.86443663421683      0.15320423606988      0.01766328032653
  H          -3.22116982216479     -0.73653766210709     -0.07301997489960
  O          -0.70388564119294      0.48233176452798     -2.07337985333799
  H           0.05823268365900      0.65529099238317     -2.63675015932830
  H          -1.43654369565297      0.24280913439833     -2.65126970646751
  H           1.64892098616816      2.16297636880036      0.13823943511040
  H          -1.51462655063131      3.41158132309678      0.42832167759794
  H          -3.61625162041508      0.74948695538336      0.09741723738329
  H          -0.12927402984108      1.18693733452067      2.71283967976020
  H          -0.11314635873798     -1.79344160024203      1.16415630222783
O 0.8832095049542403 0.7129515668421036 4.035054789679644
H 1.7832095049542405 0.7129515668421036 4.035054789679644
H 0.5901981659427993 1.5639182848814888 4.035054789679644
O -2.828164151312561 -1.158922067374364 3.3678443020137383
H -1.928164151312561 -1.158922067374364 3.3678443020137383
H -3.121175490324002 -0.3079553493349789 3.3678443020137383
O -0.4859574250278205 4.118299021965856 2.700633814347833
H 0.4140425749721795 4.118299021965856 2.700633814347833
H -0.7789687640392615 4.969265740005241 2.700633814347833
O 1.556044326583346 -2.3402871392700932 2.033423326681927
H 2.456044326583346 -2.3402871392700932 2.033423326681927
H 1.2630329875719049 -1.489320421230708 2.033423326681927
O -4.848206358412753 1.431707980695358 1.3662128390160222
H -3.948206358412753 1.431707980695358 1.3662128390160222
H -5.141217697424194 2.282674698734743 1.3662128390160222
O 2.8308746489216805 3.012958448177555 0.699002351350116
H 3.7308746489216804 3.012958448177555 0.699002351350116
H 2.5378633099102395 3.86392516621694 0.699002351350116
O -1.9106863608882245 -3.4752274003416597 0.03179186368421027
H -1.0106863608882244 -3.4752274003416597 0.03179186368421027
H -2.2036976998996654 -2.6242606823022747 0.03179186368421027
O -2.7599125254120476 4.515878363954223 -0.6354186239816955
H -1.8599125254120477 4.515878363954223 -0.6354186239816955
H -3.0529238644234886 5.366845081993608 -0.6354186239816955
O 3.0912634705138693 -0.7025866999144093 -1.3026291116476016
H 3.991263470513869 -0.7025866999144093 -1.3026291116476016
H 2.7982521315024282 0.14838001812497592 -1.3026291116476016
O -4.34107296173695 -0.7550193152728963 -1.9698395993135072
H -3.44107296173695 -0.7550193152728963 -1.9698395993135072
H -4.634084300748391 0.09594740276648883 -1.9698395993135072
O 0.6640739093793715 3.809146671437726 -2.637050086979413
H 1.5640739093793714 3.809146671437726 -2.637050086979413
H 0.3710625703679305 4.660113389477111 -2.637050086979413
O 0.044538762485413774 -1.9311643807783272 -3.304260574645318
H 0.9445387624854138 -1.9311643807783272 -3.304260574645318
H -0.24847257652602722 -1.080197662738942 -3.304260574645318
O -2.2280116971941695 1.5493125588257857 -3.9714710623112244
H -1.3280116971941696 1.5493125588257857 -3.9714710623112244
H -2.5210230362056105 2.400279276865171 -3.9714710623112244
