58
Molecule with added oxygen and hydrogen atoms
  Fe         -0.78537891273445      0.71334896292406      0.03247010414631
  O          -1.33780085166972      2.76249901749562     -0.26001393245826
  H          -1.45215816609440      3.20884026236696     -1.10764691490464
  O           1.30583780149172      1.28298645520855      0.05679637797438
  H           2.04704172463215      0.73999814155793      0.35007399215956
  O          -0.90308720682848      1.04179765606771      2.13128257081597
  H          -1.68987963815918      0.94804500381614      2.68197461469698
  O          -0.22932386747284     -1.33505370764049      0.32258444443662
  H          -0.04420927220759     -1.98182487910595     -0.36890681183691
  O          -2.87592529033934      0.14109253253862      0.00772781918066
  H          -3.61787630147370      0.68092903406403     -0.28943736976076
  O          -0.66646717519122      0.38530614266369     -2.06742657162964
  H           0.12077667307595      0.48280680338631     -2.61684208332208
  H          -1.37671889952057      0.07149593740307     -2.64024867281061
  H           1.67390779302531      2.13115224451332     -0.21775192521421
  H          -1.52891092416945      3.40922669493690      0.42986970091336
  H          -3.24284419561980     -0.70585094986171      0.28750069184563
  H          -0.19070434554222      1.35319004308886      2.70277775714570
  H          -0.11779651520212     -1.78390562542366      1.16926161862193
O 0.8887958599066144 0.7129515668421033 4.048462041565343
H 1.7887958599066143 0.7129515668421033 4.048462041565343
H 0.5957845208951733 1.5639182848814883 4.048462041565343
O -2.835007487432538 -1.1651911238355757 3.3790170119184872
H -1.935007487432538 -1.1651911238355757 3.3790170119184872
H -3.128018826443979 -0.3142244057961905 3.3790170119184872
O -0.48495652105460607 4.129703806496169 2.7095719822716324
H 0.41504347894539395 4.129703806496169 2.7095719822716324
H -0.7779678600660471 4.980670524535554 2.7095719822716324
O 1.5638840598667993 -2.350512683071925 2.0401269526247767
H 2.4638840598667993 -2.350512683071925 2.0401269526247767
H 1.2708727208553583 -1.4995459650325398 2.0401269526247767
O -4.8618149795492265 1.4341151541593882 1.370681922977922
H -3.9618149795492266 1.4341151541593882 1.370681922977922
H -5.1548263185606675 2.2850818721987736 1.370681922977922
O 2.842983892242092 3.0206613575709564 0.7012368933310659
H 3.742983892242092 3.0206613575709564 0.7012368933310659
H 2.549972553230651 3.8716280756103414 0.7012368933310659
O -1.9144569895535202 -3.489253951031297 0.03179186368421028
H -1.01445698955352 -3.489253951031297 0.03179186368421028
H -2.207468328564961 -2.638287232991912 0.03179186368421028
O -2.7665272813070994 4.52861467391295 -0.6376531659626453
H -1.8665272813070994 4.52861467391295 -0.6376531659626453
H -3.0595386203185404 5.3795813919523345 -0.6376531659626453
O 3.104244777094637 -0.7073274522574581 -1.3070981956095014
H 4.004244777094637 -0.7073274522574581 -1.3070981956095014
H 2.811233438083196 0.1436392657819271 -1.3070981956095014
O -4.352983152039734 -0.7599356686928996 -1.9765432252563566
H -3.452983152039734 -0.7599356686928996 -1.9765432252563566
H -4.645994491051175 0.09103104934648554 -1.9765432252563566
O 0.6689263614676801 3.8195160796984284 -2.6459882549032123
H 1.56892636146768 3.8195160796984284 -2.6459882549032123
H 0.37591502245623915 4.670482797737813 -2.6459882549032123
O 0.047316341171699916 -1.940019739314621 -3.315433284550067
H 0.9473163411716999 -1.940019739314621 -3.315433284550067
H -0.24569499783974108 -1.0890530212752358 -3.315433284550067
O -2.2328450741206254 1.5521135995503612 -3.9848783141969233
H -1.3328450741206255 1.5521135995503612 -3.9848783141969233
H -2.5258564131320664 2.4030803175897466 -3.9848783141969233
