109
Molecule with added oxygen and hydrogen atoms
Fe         0.00001       -0.00001        0.00002
O         -1.40398        0.85567        1.19840
H         -2.34803        0.96333        0.99379
O          0.38722        1.81209       -0.84010
H          1.03631        1.99590       -1.53982
O          1.42074        0.35166        1.41322
H          1.67362       -0.24569        2.13706
O          1.40409       -0.85555       -1.19837
H          1.25493       -1.23362       -2.08127
O         -0.38717       -1.81226        0.83989
H         -1.03888       -1.99685        1.53676
O         -1.42089       -0.35162       -1.41306
H         -1.67440        0.24614       -2.13634
H         -1.97202       -1.14850       -1.49015
H         -0.04276        2.65454       -0.61622
H         -1.25494        1.23267        2.08177
H          0.04498       -2.65393        0.61851
H          1.97243        1.14822        1.48978
H          2.34840       -0.96195       -0.99421
O 1.798418926505428 1.263157894734015e-05 4.1249821052631575
H 2.698418926505428 1.263157894734015e-05 4.1249821052631575
H 1.505407587493987 0.8509793496183325 4.1249821052631575
O -2.194774405140027 -2.010564116531613 3.374982105263158
H -1.2947744051400272 -2.010564116531613 3.374982105263158
H -2.487785744151468 -1.1595973984922276 3.374982105263158
O 0.3195273149864483 3.6410654819153576 2.6249821052631575
H 1.2195273149864483 3.6410654819153576 2.6249821052631575
H 0.026515975975007322 4.492032199954743 2.6249821052631575
O 2.488963745428881 -3.2464231670959545 1.874982105263158
H 3.388963745428881 -3.2464231670959545 1.874982105263158
H 2.19595240641744 -2.395456449056569 1.874982105263158
O -4.290519190325921 0.7589418987365891 1.124982105263158
H -3.390519190325921 0.7589418987365891 1.124982105263158
H -4.583530529337362 1.6099086167759742 1.124982105263158
O 3.7836742872903115 2.4068878821199053 0.37498210526315817
H 4.683674287290311 2.4068878821199053 0.37498210526315817
H 3.4906629482788705 3.2578546001592903 0.37498210526315817
O -1.1641738827532035 -4.330589617019468 -0.3750178947368419
H -0.2641738827532035 -4.330589617019468 -0.3750178947368419
H -1.4571852217646446 -3.4796228989800833 -0.3750178947368419
O -2.0082387794598295 3.8667197420493573 -1.1250178947368417
H -1.1082387794598296 3.8667197420493573 -1.1250178947368417
H -2.3012501184712706 4.717686460088743 -1.1250178947368417
O 3.8425267070429836 -1.4032784940727185 -1.8750178947368428
H 4.742526707042984 -1.4032784940727185 -1.8750178947368428
H 3.5495153680315426 -0.5523117760333334 -1.8750178947368428
O -3.378545159441828 -1.3945943100519373 -2.625017894736841
H -2.478545159441828 -1.3945943100519373 -2.625017894736841
H -3.671556498453269 -0.5436275920125522 -2.625017894736841
O 1.2615470894866117 2.695903725555348 -3.375017894736842
H 2.1615470894866116 2.695903725555348 -3.375017894736842
H 0.9685357504751706 3.5468704435947336 -3.375017894736842
O 0.5382252270844697 -1.7159912558910215 -4.1250178947368425
H 1.4382252270844698 -1.7159912558910215 -4.1250178947368425
H 0.24521388807302874 -0.8650245378516364 -4.1250178947368425
O 2.323151590696642 0.14574748764274537 6.138870994152046
H 3.223151590696642 0.14574748764274537 6.138870994152046
H 2.030140251685201 0.9967142056821305 6.138870994152046
O -2.4625844455941395 -2.281296022582172 5.416648771929824
H -1.5625844455941396 -2.281296022582172 5.416648771929824
H -2.7555957846055805 -1.4303293045427867 5.416648771929824
O 0.5798377644411822 4.624330341406173 4.694426549707602
H 1.4798377644411822 4.624330341406173 4.694426549707602
H 0.2868264254297412 5.475297059445558 4.694426549707602
O 3.3172325528190387 -3.937361202713053 3.9722043274853798
H 4.217232552819039 -3.937361202713053 3.9722043274853798
H 3.0242212138075977 -3.0863944846736677 3.9722043274853798
O -5.3563253624602325 1.1262464480525947 3.2499821052631583
H -4.456325362460232 1.1262464480525947 3.2499821052631583
H -5.6493367014716735 1.9772131660919798 3.2499821052631583
O 5.239491733048124 3.3598630911503977 2.527759883040935
H 6.139491733048124 3.3598630911503977 2.527759883040935
H 4.946480394036683 4.210829809189783 2.527759883040935
O -1.4342304129760453 -5.884365591729445 1.8055376608187133
H -0.5342304129760452 -5.884365591729445 1.8055376608187133
H -1.7272417519874863 -5.03339887369006 1.8055376608187133
O -2.767203511562061 5.8334811743442305 1.0833154385964912
H -1.867203511562061 5.8334811743442305 1.0833154385964912
H -3.060214850573502 6.6844478923836155 1.0833154385964912
O 6.282948387084454 -2.0805599799404337 0.36109321637426905
H 7.182948387084454 -2.0805599799404337 0.36109321637426905
H 5.9899370480730125 -1.2295932619010486 0.36109321637426905
O -5.812177517979832 -2.3305388691661086 -0.3611290058479531
H -4.912177517979831 -2.3305388691661086 -0.3611290058479531
H -6.105188856991273 -1.4795721511267235 -0.3611290058479531
O 2.9032550627878693 5.95067672459664 -1.0833512280701751
H 3.803255062787869 5.95067672459664 -1.0833512280701751
H 2.610243723776428 6.801643442636025 -1.0833512280701751
O 2.055576207325718 -5.812239184001008 -1.8055734502923972
H 2.955576207325718 -5.812239184001008 -1.8055734502923972
H 1.7625648683142772 -4.961272465961623 -1.8055734502923972
O -4.994398374463248 3.1483517351203956 -2.52779567251462
H -4.094398374463248 3.1483517351203956 -2.52779567251462
H -5.287409713474689 3.9993184531597805 -2.52779567251462
O 5.684658649747913 1.3544386091754586 -3.2500178947368434
H 6.584658649747913 1.3544386091754586 -3.2500178947368434
H 5.391647310736472 2.2054053272148435 -3.2500178947368434
O -2.772275254661029 -4.063217552584355 -3.9722401169590644
H -1.8722752546610293 -4.063217552584355 -3.9722401169590644
H -3.0652865936724703 -3.21225083454497 -3.9722401169590644
O -0.3909685367684985 4.604265971449678 -4.694462339181287
H 0.5090314632315015 4.604265971449678 -4.694462339181287
H -0.6839798757799396 5.455232689489063 -4.694462339181287
O 2.934181078903546 -2.169757088484716 -5.416684561403509
H 3.834181078903546 -2.169757088484716 -5.416684561403509
H 2.641169739892105 -1.318790370445331 -5.416684561403509
O -1.9477483592057516 0.05747764788655611 -6.138906783625731
H -1.0477483592057517 0.05747764788655611 -6.138906783625731
H -2.2407596982171927 0.9084443659259412 -6.138906783625731
