109
Molecule with added oxygen and hydrogen atoms
Fe        -0.00002       -0.00000       -0.00001
O         -1.45133       -0.24937       -1.41742
H         -2.13858       -0.93885       -1.43098
O          1.24800       -1.22163       -1.06204
H          2.15757       -1.47326       -0.82312
O          0.71783        1.61962       -1.01939
H          0.44504        2.54708       -0.90461
O          1.45137        0.24926        1.41740
H          1.59321       -0.30117        2.20778
O         -1.24784        1.22172        1.06214
H         -2.15708        1.47419        0.82290
O         -0.71799       -1.61961        1.01930
H         -0.44714       -2.54741        0.90260
H         -1.39750       -1.61328        1.71647
H          1.04889       -1.66484       -1.90565
H         -1.59035        0.29827       -2.21023
H         -1.04890        1.66416        1.90619
H          1.39936        1.61361       -1.71461
H          2.13557        0.94167        1.43358
O 1.7984426107159543 8.421052631505563e-06 4.125015789473684
H 2.6984426107159543 8.421052631505563e-06 4.125015789473684
H 1.5054312717045133 0.8509751390920167 4.125015789473684
O -2.1947507209295005 -2.0105683270579284 3.375015789473684
H -1.2947507209295006 -2.0105683270579284 3.375015789473684
H -2.4877620599409416 -1.1596016090185433 3.375015789473684
O 0.31955099919697466 3.641061271389042 2.6250157894736836
H 1.2195509991969746 3.641061271389042 2.6250157894736836
H 0.026539660185533664 4.492027989428427 2.6250157894736836
O 2.4889874296394074 -3.24642737762227 1.8750157894736843
H 3.3889874296394074 -3.24642737762227 1.8750157894736843
H 2.1959760906279664 -2.395460659582885 1.8750157894736843
O -4.290495506115395 0.7589376882102733 1.1250157894736843
H -3.390495506115395 0.7589376882102733 1.1250157894736843
H -4.583506845126836 1.6099044062496586 1.1250157894736843
O 3.783697971500838 2.4068836715935897 0.3750157894736845
H 4.683697971500838 2.4068836715935897 0.3750157894736845
H 3.490686632489397 3.257850389632975 0.3750157894736845
O -1.1641501985426772 -4.330593827545784 -0.37498421052631553
H -0.2641501985426772 -4.330593827545784 -0.37498421052631553
H -1.4571615375541183 -3.4796271095063993 -0.37498421052631553
O -2.008215095249303 3.8667155315230417 -1.1249842105263153
H -1.108215095249303 3.8667155315230417 -1.1249842105263153
H -2.301226434260744 4.717682249562427 -1.1249842105263153
O 3.84255039125351 -1.4032827045990344 -1.8749842105263164
H 4.74255039125351 -1.4032827045990344 -1.8749842105263164
H 3.549539052242069 -0.5523159865596492 -1.8749842105263164
O -3.3785214752313015 -1.3945985205782532 -2.624984210526315
H -2.4785214752313016 -1.3945985205782532 -2.624984210526315
H -3.6715328142427426 -0.543631802538868 -2.624984210526315
O 1.261570773697138 2.6958995150290326 -3.374984210526316
H 2.161570773697138 2.6958995150290326 -3.374984210526316
H 0.9685594346856969 3.5468662330684175 -3.374984210526316
O 0.5382489112949961 -1.7159954664173374 -4.124984210526316
H 1.438248911294996 -1.7159954664173374 -4.124984210526316
H 0.24523757228355508 -0.8650287483779522 -4.124984210526316
O 2.323175274907168 0.14574327711642962 6.138904678362573
H 3.223175274907168 0.14574327711642962 6.138904678362573
H 2.030163935895727 0.9967099951558148 6.138904678362573
O -2.462560761383613 -2.2813002331084875 5.416682456140352
H -1.562560761383613 -2.2813002331084875 5.416682456140352
H -2.755572100395054 -1.4303335150691023 5.416682456140352
O 0.5798614486517086 4.624326130879858 4.69446023391813
H 1.4798614486517088 4.624326130879858 4.69446023391813
H 0.28685010964026764 5.475292848919243 4.69446023391813
O 3.3172562370295653 -3.9373654132393687 3.972238011695907
H 4.217256237029566 -3.9373654132393687 3.972238011695907
H 3.0242448980181242 -3.0863986951999838 3.972238011695907
O -5.3563016782497055 1.1262422375262788 3.2500157894736854
H -4.456301678249705 1.1262422375262788 3.2500157894736854
H -5.6493130172611465 1.977208955565664 3.2500157894736854
O 5.239515417258651 3.359858880624082 2.527793567251462
H 6.139515417258651 3.359858880624082 2.527793567251462
H 4.94650407824721 4.210825598663467 2.527793567251462
O -1.434206728765519 -5.88436980225576 1.80557134502924
H -0.5342067287655189 -5.88436980225576 1.80557134502924
H -1.72721806777696 -5.033403084216375 1.80557134502924
O -2.7671798273515344 5.8334769638179145 1.083349122807018
H -1.8671798273515345 5.8334769638179145 1.083349122807018
H -3.0601911663629755 6.684443681857299 1.083349122807018
O 6.282972071294981 -2.0805641904667493 0.361126900584796
H 7.182972071294981 -2.0805641904667493 0.361126900584796
H 5.9899607322835395 -1.2295974724273642 0.361126900584796
O -5.812153833769305 -2.3305430796924242 -0.36109532163742614
H -4.912153833769304 -2.3305430796924242 -0.36109532163742614
H -6.105165172780746 -1.479576361653039 -0.36109532163742614
O 2.903278746998396 5.950672514070325 -1.0833175438596483
H 3.8032787469983957 5.950672514070325 -1.0833175438596483
H 2.610267407986955 6.80163923210971 -1.0833175438596483
O 2.055599891536245 -5.812243394527323 -1.8055397660818704
H 2.9555998915362447 -5.812243394527323 -1.8055397660818704
H 1.7625885525248037 -4.961276676487938 -1.8055397660818704
O -4.994374690252721 3.14834752459408 -2.5277619883040927
H -4.094374690252721 3.14834752459408 -2.5277619883040927
H -5.287386029264162 3.9993142426334654 -2.5277619883040927
O 5.68468233395844 1.3544343986491427 -3.2499842105263164
H 6.58468233395844 1.3544343986491427 -3.2499842105263164
H 5.391670994946999 2.205401116688528 -3.2499842105263164
O -2.7722515704505026 -4.063221763110671 -3.9722064327485374
H -1.8722515704505027 -4.063221763110671 -3.9722064327485374
H -3.0652629094619437 -3.212255045071286 -3.9722064327485374
O -0.39094485255797207 4.604261760923362 -4.69442865497076
H 0.509055147442028 4.604261760923362 -4.69442865497076
H -0.683956191569413 5.455228478962747 -4.69442865497076
O 2.9342047631140726 -2.1697612990110318 -5.416650877192981
H 3.8342047631140725 -2.1697612990110318 -5.416650877192981
H 2.6411934241026316 -1.3187945809716466 -5.416650877192981
O -1.9477246749952253 0.05747343736024037 -6.138873099415203
H -1.0477246749952251 0.05747343736024037 -6.138873099415203
H -2.240736014006666 0.9084401553996255 -6.138873099415203
