109
Molecule with added oxygen and hydrogen atoms
Fe         0.00002        0.00002       -0.00002
O         -0.97334       -1.33082        1.20951
H         -1.58830       -1.11829        1.93338
O          1.56493        0.05253        1.31532
H          2.38173        0.57463        1.22824
O          0.88780       -1.55190       -0.99264
H          0.54414       -2.01487       -1.77680
O          0.97333        1.33089       -1.20951
H          0.91199        2.30165       -1.17530
O         -1.56504       -0.05275       -1.31517
H         -2.38142       -0.57554       -1.22808
O         -0.88772        1.55201        0.99253
H         -0.54385        2.01528        1.77641
H         -1.73730        1.97333        0.77343
H          1.63944       -0.43913        2.15200
H         -0.91193       -2.30158        1.17543
H         -1.64016        0.43923       -2.15162
H          1.73725       -1.97341       -0.77338
H          1.58819        1.11840       -1.93348
O 1.7984241896633228 -1.6842105263163053e-05 4.125013157894736
H 2.698424189663323 -1.6842105263163053e-05 4.125013157894736
H 1.5054128506518818 0.850949875934122 4.125013157894736
O -2.1947691419821322 -2.0105935902158234 3.375013157894737
H -1.2947691419821323 -2.0105935902158234 3.375013157894737
H -2.4877804809935733 -1.1596268721764382 3.375013157894737
O 0.3195325781443431 3.641036008231147 2.6250131578947364
H 1.2195325781443431 3.641036008231147 2.6250131578947364
H 0.026521239132902108 4.492002726270532 2.6250131578947364
O 2.4889690085867757 -3.246452640780165 1.8750131578947369
H 3.3889690085867756 -3.246452640780165 1.8750131578947369
H 2.1959576695753347 -2.3954859227407796 1.8750131578947369
O -4.290513927168027 0.7589124250523785 1.1250131578947369
H -3.3905139271680267 0.7589124250523785 1.1250131578947369
H -4.583525266179468 1.6098791430917636 1.1250131578947369
O 3.7836795504482064 2.4068584084356948 0.3750131578947371
H 4.683679550448207 2.4068584084356948 0.3750131578947371
H 3.4906682114367653 3.2578251264750797 0.3750131578947371
O -1.1641686195953087 -4.330619090703679 -0.37498684210526295
H -0.2641686195953087 -4.330619090703679 -0.37498684210526295
H -1.4571799586067498 -3.479652372664294 -0.37498684210526295
O -2.0082335163019347 3.8666902683651467 -1.1249868421052627
H -1.1082335163019348 3.8666902683651467 -1.1249868421052627
H -2.3012448553133757 4.717656986404532 -1.1249868421052627
O 3.8425319702008784 -1.403307967756929 -1.8749868421052638
H 4.742531970200878 -1.403307967756929 -1.8749868421052638
H 3.5495206311894374 -0.5523412497175437 -1.8749868421052638
O -3.3785398962839333 -1.3946237837361477 -2.6249868421052622
H -2.4785398962839333 -1.3946237837361477 -2.6249868421052622
H -3.6715512352953743 -0.5436570656967625 -2.6249868421052622
O 1.2615523526445065 2.6958742518711376 -3.374986842105263
H 2.1615523526445064 2.6958742518711376 -3.374986842105263
H 0.9685410136330654 3.546840969910523 -3.374986842105263
O 0.5382304902423645 -1.7160207295752319 -4.124986842105264
H 1.4382304902423644 -1.7160207295752319 -4.124986842105264
H 0.24521915123092347 -0.8650540115358467 -4.124986842105264
O 2.323156853854537 0.14571801395853487 6.138902046783625
H 3.2231568538545368 0.14571801395853487 6.138902046783625
H 2.030145514843096 0.9966847319979201 6.138902046783625
O -2.4625791824362446 -2.2813254962663825 5.416679824561403
H -1.5625791824362447 -2.2813254962663825 5.416679824561403
H -2.7555905214476857 -1.4303587782269973 5.416679824561403
O 0.579843027599077 4.6243008677219635 4.694457602339181
H 1.479843027599077 4.6243008677219635 4.694457602339181
H 0.286831688587636 5.475267585761348 4.694457602339181
O 3.3172378159769336 -3.9373906763972637 3.9722353801169583
H 4.217237815976934 -3.9373906763972637 3.9722353801169583
H 3.0242264769654925 -3.0864239583578783 3.9722353801169583
O -5.356320099302337 1.126216974368384 3.250013157894737
H -4.456320099302337 1.126216974368384 3.250013157894737
H -5.649331438313778 1.9771836924077693 3.250013157894737
O 5.239496996206019 3.359833617466187 2.5277909356725137
H 6.139496996206019 3.359833617466187 2.5277909356725137
H 4.946485657194578 4.2108003355055725 2.5277909356725137
O -1.4342251498181504 -5.8843950654136545 1.8055687134502918
H -0.5342251498181504 -5.8843950654136545 1.8055687134502918
H -1.7272364888295915 -5.03342834737427 1.8055687134502918
O -2.767198248404166 5.83345170066002 1.0833464912280697
H -1.8671982484041663 5.83345170066002 1.0833464912280697
H -3.0602095874156072 6.684418418699405 1.0833464912280697
O 6.282953650242349 -2.0805894536246443 0.3611242690058476
H 7.182953650242349 -2.0805894536246443 0.3611242690058476
H 5.989942311230908 -1.2296227355852591 0.3611242690058476
O -5.812172254821936 -2.330568342850319 -0.36109795321637456
H -4.912172254821936 -2.330568342850319 -0.36109795321637456
H -6.105183593833377 -1.479601624810934 -0.36109795321637456
O 2.903260325945764 5.95064725091243 -1.0833201754385966
H 3.803260325945764 5.95064725091243 -1.0833201754385966
H 2.610248986934323 6.801613968951815 -1.0833201754385966
O 2.055581470483613 -5.812268657685218 -1.8055423976608187
H 2.955581470483613 -5.812268657685218 -1.8055423976608187
H 1.762570131472172 -4.961301939645833 -1.8055423976608187
O -4.994393111305353 3.148322261436185 -2.5277646198830412
H -4.094393111305353 3.148322261436185 -2.5277646198830412
H -5.287404450316794 3.99928897947557 -2.5277646198830412
O 5.684663912905808 1.354409135491248 -3.249986842105265
H 6.584663912905809 1.354409135491248 -3.249986842105265
H 5.391652573894367 2.205375853530633 -3.249986842105265
O -2.7722699915031344 -4.063247026268566 -3.972209064327486
H -1.8722699915031344 -4.063247026268566 -3.972209064327486
H -3.0652813305145754 -3.2122803082291806 -3.972209064327486
O -0.3909632736106037 4.604236497765467 -4.694431286549708
H 0.5090367263893963 4.604236497765467 -4.694431286549708
H -0.6839746126220447 5.455203215804852 -4.694431286549708
O 2.934186342061441 -2.1697865621689267 -5.41665350877193
H 3.834186342061441 -2.1697865621689267 -5.41665350877193
H 2.64117500305 -1.3188198441295416 -5.41665350877193
O -1.9477430960478568 0.05744817420234562 -6.138875730994152
H -1.0477430960478569 0.05744817420234562 -6.138875730994152
H -2.240754435059298 0.9084148922417308 -6.138875730994152
