109
Molecule with added oxygen and hydrogen atoms
Fe         0.00004       -0.00001        0.00001
O         -0.97470       -1.51004        0.95884
H         -1.53640       -1.42306        1.74796
O          1.62647       -0.29338        1.19074
H          2.46132        0.20436        1.15813
O          0.74465       -1.33554       -1.34568
H          0.32898       -1.60056       -2.18402
O          0.97489        1.51007       -0.95859
H          0.96371        2.45072       -0.71187
O         -1.62646        0.29324       -1.19071
H         -2.46100       -0.20522       -1.15860
O         -0.74493        1.33567        1.34539
H         -0.32945        1.60115        2.18367
H         -1.58158        1.82536        1.26767
H          1.71146       -0.95749        1.89610
H         -0.96305       -2.45081        0.71259
H         -1.71181        0.95794       -1.89555
H          1.58116       -1.82552       -1.26826
H          1.53626        1.42326       -1.74798
O 1.7984136633475334 7.368421052598045e-06 4.124991578947369
H 2.6984136633475333 7.368421052598045e-06 4.124991578947369
H 1.5054023243360923 0.8509740864604378 4.124991578947369
O -2.194779668297922 -2.0105693796895077 3.3749915789473683
H -1.294779668297922 -2.0105693796895077 3.3749915789473683
H -2.487791007309363 -1.1596026616501225 3.3749915789473683
O 0.3195220518285536 3.6410602187574628 2.624991578947368
H 1.2195220518285537 3.6410602187574628 2.624991578947368
H 0.02651071281711259 4.492026936796848 2.624991578947368
O 2.488958482270986 -3.2464284302538493 1.8749915789473683
H 3.388958482270986 -3.2464284302538493 1.8749915789473683
H 2.195947143259545 -2.3954617122144644 1.8749915789473683
O -4.290524453483816 0.7589366355786944 1.1249915789473683
H -3.3905244534838164 0.7589366355786944 1.1249915789473683
H -4.583535792495257 1.6099033536180796 1.1249915789473683
O 3.7836690241324167 2.4068826189620105 0.3749915789473687
H 4.683669024132417 2.4068826189620105 0.3749915789473687
H 3.4906576851209756 3.257849337001396 0.3749915789473687
O -1.1641791459110982 -4.330594880177363 -0.3750084210526314
H -0.26417914591109815 -4.330594880177363 -0.3750084210526314
H -1.4571904849225392 -3.4796281621379777 -0.3750084210526314
O -2.0082440426177244 3.8667144788914625 -1.1250084210526312
H -1.1082440426177245 3.8667144788914625 -1.1250084210526312
H -2.3012553816291654 4.717681196930847 -1.1250084210526312
O 3.8425214438850888 -1.4032837572306132 -1.8750084210526323
H 4.742521443885089 -1.4032837572306132 -1.8750084210526323
H 3.5495101048736477 -0.552317039191228 -1.8750084210526323
O -3.378550422599723 -1.394599573209832 -2.6250084210526308
H -2.478550422599723 -1.394599573209832 -2.6250084210526308
H -3.671561761611164 -0.5436328551704468 -2.6250084210526308
O 1.261541826328717 2.6958984623974533 -3.3750084210526317
H 2.161541826328717 2.6958984623974533 -3.3750084210526317
H 0.968530487317276 3.5468651804368383 -3.3750084210526317
O 0.538219963926575 -1.7159965190489161 -4.125008421052631
H 1.4382199639265751 -1.7159965190489161 -4.125008421052631
H 0.245208624915134 -0.865029801009531 -4.125008421052631
O 2.323146327538747 0.1457422244848507 6.138880467836256
H 3.223146327538747 0.1457422244848507 6.138880467836256
H 2.030134988527306 0.9967089425242359 6.138880467836256
O -2.4625897087520343 -2.2813012857400667 5.416658245614035
H -1.5625897087520344 -2.2813012857400667 5.416658245614035
H -2.7556010477634754 -1.4303345677006816 5.416658245614035
O 0.5798325012832874 4.624325078248279 4.6944360233918125
H 1.4798325012832874 4.624325078248279 4.6944360233918125
H 0.28682116227184645 5.475291796287664 4.6944360233918125
O 3.317227289661144 -3.937366465870948 3.97221380116959
H 4.217227289661144 -3.937366465870948 3.97221380116959
H 3.024215950649703 -3.086399747831563 3.97221380116959
O -5.356330625618127 1.1262411848947 3.249991578947369
H -4.4563306256181265 1.1262411848947 3.249991578947369
H -5.649341964629568 1.9772079029340852 3.249991578947369
O 5.239486469890229 3.359857827992503 2.5277693567251456
H 6.13948646989023 3.359857827992503 2.5277693567251456
H 4.946475130878788 4.210824546031888 2.5277693567251456
O -1.43423567613394 -5.884370854887339 1.8055471345029233
H -0.5342356761339401 -5.884370854887339 1.8055471345029233
H -1.7272470151453811 -5.033404136847954 1.8055471345029233
O -2.767208774719956 5.833475911186335 1.0833249122807012
H -1.867208774719956 5.833475911186335 1.0833249122807012
H -3.060220113731397 6.68444262922572 1.0833249122807012
O 6.282943123926559 -2.0805652430983286 0.3611026900584793
H 7.1829431239265595 -2.0805652430983286 0.3611026900584793
H 5.989931784915118 -1.2295985250589434 0.3611026900584793
O -5.812182781137726 -2.3305441323240035 -0.3611195321637429
H -4.912182781137726 -2.3305441323240035 -0.3611195321637429
H -6.105194120149167 -1.4795774142846183 -0.3611195321637429
O 2.9032497996299744 5.950671461438746 -1.0833417543859651
H 3.8032497996299743 5.950671461438746 -1.0833417543859651
H 2.6102384606185334 6.801638179478131 -1.0833417543859651
O 2.0555709441678234 -5.8122444471589025 -1.8055639766081872
H 2.9555709441678233 -5.8122444471589025 -1.8055639766081872
H 1.7625596051563823 -4.961277729119518 -1.8055639766081872
O -4.994403637621143 3.1483464719625007 -2.5277861988304093
H -4.094403637621142 3.1483464719625007 -2.5277861988304093
H -5.287414976632584 3.999313190001886 -2.5277861988304093
O 5.684653386590019 1.354433346017564 -3.250008421052633
H 6.584653386590019 1.354433346017564 -3.250008421052633
H 5.391642047578578 2.205400064056949 -3.250008421052633
O -2.772280517818924 -4.06322281574225 -3.972230643274854
H -1.8722805178189241 -4.06322281574225 -3.972230643274854
H -3.065291856830365 -3.2122560977028654 -3.972230643274854
O -0.39097379992639325 4.604260708291783 -4.694452865497077
H 0.5090262000736068 4.604260708291783 -4.694452865497077
H -0.6839851389378342 5.4552274263311675 -4.694452865497077
O 2.9341758157456512 -2.169762351642611 -5.416675087719298
H 3.834175815745651 -2.169762351642611 -5.416675087719298
H 2.64116447673421 -1.3187956336032258 -5.416675087719298
O -1.9477536223636465 0.05747238472866144 -6.1388973099415205
H -1.0477536223636466 0.05747238472866144 -6.1388973099415205
H -2.2407649613750875 0.9084391027680466 -6.1388973099415205
