109
Molecule with added oxygen and hydrogen atoms
Fe         0.00000        0.00000       -0.00000
O          0.98325        1.05770        1.43084
H          0.61906        1.35231        2.28276
O         -0.61249        1.73610       -0.86241
H         -1.16462        1.82122       -1.65808
O          1.67089        0.01398       -1.15811
H          2.38032       -0.65076       -1.15483
O         -0.98330       -1.05770       -1.43081
H         -1.90547       -1.36295       -1.39053
O          0.61253       -1.73611        0.86237
H          1.16463       -1.82124        1.65806
O         -1.67088       -0.01399        1.15812
H         -2.38029        0.65079        1.15489
H         -1.90908       -0.68640        1.81867
H         -0.40764        2.63578       -0.55612
H          1.90542        1.36296        1.39062
H          0.40773       -2.63578        0.55604
H          1.90906        0.68636       -1.81870
H         -0.61916       -1.35231       -2.28274
O 1.7984347159791123 -2.1052631578968424e-06 4.125002105263158
H 2.698434715979112 -2.1052631578968424e-06 4.125002105263158
H 1.5054233769676713 0.8509646127762273 4.125002105263158
O -2.194758615666343 -2.010578853373718 3.375002105263158
H -1.294758615666343 -2.010578853373718 3.375002105263158
H -2.487769954677784 -1.159612135334333 3.375002105263158
O 0.31954310446013257 3.6410507450732523 2.6250021052631576
H 1.2195431044601326 3.6410507450732523 2.6250021052631576
H 0.02653176544869157 4.492017463112638 2.6250021052631576
O 2.488979534902565 -3.2464379039380598 1.875002105263158
H 3.388979534902565 -3.2464379039380598 1.875002105263158
H 2.195968195891124 -2.395471185898675 1.875002105263158
O -4.290503400852237 0.7589271618944838 1.125002105263158
H -3.390503400852237 0.7589271618944838 1.125002105263158
H -4.583514739863678 1.609893879933869 1.125002105263158
O 3.7836900767639956 2.4068731452778 0.3750021052631582
H 4.6836900767639955 2.4068731452778 0.3750021052631582
H 3.4906787377525546 3.2578398633171854 0.3750021052631582
O -1.1641580932795192 -4.330604353861573 -0.37499789473684186
H -0.2641580932795192 -4.330604353861573 -0.37499789473684186
H -1.4571694322909603 -3.479637635822188 -0.37499789473684186
O -2.0082229899861455 3.866705005207252 -1.1249978947368415
H -1.1082229899861455 3.866705005207252 -1.1249978947368415
H -2.3012343289975865 4.717671723246637 -1.1249978947368415
O 3.8425424965166677 -1.4032932309148236 -1.8749978947368426
H 4.742542496516668 -1.4032932309148236 -1.8749978947368426
H 3.5495311575052266 -0.5523265128754384 -1.8749978947368426
O -3.378529369968144 -1.3946090468940424 -2.624997894736841
H -2.478529369968144 -1.3946090468940424 -2.624997894736841
H -3.671540708979585 -0.5436423288546572 -2.624997894736841
O 1.261562878960296 2.695888988713243 -3.374997894736842
H 2.161562878960296 2.695888988713243 -3.374997894736842
H 0.9685515399488549 3.546855706752628 -3.374997894736842
O 0.538241016558154 -1.7160059927331266 -4.124997894736842
H 1.438241016558154 -1.7160059927331266 -4.124997894736842
H 0.24522967754671304 -0.8650392746937414 -4.124997894736842
O 2.323167380170326 0.14573275080064024 6.138890994152046
H 3.223167380170326 0.14573275080064024 6.138890994152046
H 2.030156041158885 0.9966994688400255 6.138890994152046
O -2.4625686561204554 -2.281310759424277 5.4166687719298245
H -1.5625686561204555 -2.281310759424277 5.4166687719298245
H -2.7555799951318964 -1.430344041384892 5.4166687719298245
O 0.5798535539148664 4.624315604564068 4.694446549707602
H 1.4798535539148663 4.624315604564068 4.694446549707602
H 0.2868422149034254 5.475282322603453 4.694446549707602
O 3.317248342292723 -3.9373759395551584 3.97222432748538
H 4.217248342292723 -3.9373759395551584 3.97222432748538
H 3.0242370032812818 -3.0864092215157735 3.97222432748538
O -5.3563095729865475 1.1262317112104896 3.2500021052631585
H -4.456309572986547 1.1262317112104896 3.2500021052631585
H -5.649320911997989 1.9771984292498748 3.2500021052631585
O 5.239507522521809 3.3598483543082924 2.5277798830409353
H 6.139507522521809 3.3598483543082924 2.5277798830409353
H 4.946496183510368 4.210815072347677 2.5277798830409353
O -1.4342146235023612 -5.88438032857155 1.8055576608187132
H -0.5342146235023612 -5.88438032857155 1.8055576608187132
H -1.7272259625138022 -5.033413610532165 1.8055576608187132
O -2.767187722088377 5.833466437502125 1.083335438596491
H -1.867187722088377 5.833466437502125 1.083335438596491
H -3.060199061099818 6.68443315554151 1.083335438596491
O 6.2829641765581385 -2.080574716782539 0.361113216374269
H 7.182964176558139 -2.080574716782539 0.361113216374269
H 5.9899528375466975 -1.2296079987431539 0.361113216374269
O -5.812161728506147 -2.330553606008214 -0.36110900584795314
H -4.912161728506146 -2.330553606008214 -0.36110900584795314
H -6.105173067517588 -1.4795868879688288 -0.36110900584795314
O 2.9032708522615533 5.950661987754535 -1.0833312280701752
H 3.8032708522615533 5.950661987754535 -1.0833312280701752
H 2.6102595132501123 6.80162870579392 -1.0833312280701752
O 2.0555919967994023 -5.812253920843113 -1.8055534502923973
H 2.955591996799402 -5.812253920843113 -1.8055534502923973
H 1.7625806577879612 -4.961287202803728 -1.8055534502923973
O -4.994382584989563 3.1483369982782903 -2.5277756725146197
H -4.094382584989563 3.1483369982782903 -2.5277756725146197
H -5.287393924001004 3.9993037163176757 -2.5277756725146197
O 5.684674439221598 1.3544238723333535 -3.2499978947368433
H 6.584674439221598 1.3544238723333535 -3.2499978947368433
H 5.391663100210157 2.2053905903727387 -3.2499978947368433
O -2.772259465187345 -4.063232289426461 -3.9722201169590643
H -1.8722594651873452 -4.063232289426461 -3.9722201169590643
H -3.065270804198786 -3.212265571387076 -3.9722201169590643
O -0.39095274729481433 4.604251234607572 -4.694442339181287
H 0.5090472527051857 4.604251234607572 -4.694442339181287
H -0.6839640863062553 5.455217952646957 -4.694442339181287
O 2.93419686837723 -2.1697718253268214 -5.4166645614035085
H 3.83419686837723 -2.1697718253268214 -5.4166645614035085
H 2.641185529365789 -1.3188051072874363 -5.4166645614035085
O -1.9477325697320675 0.05746291104445099 -6.138886783625731
H -1.0477325697320676 0.05746291104445099 -6.138886783625731
H -2.2407439087435086 0.9084296290838362 -6.138886783625731
