109
Molecule with added oxygen and hydrogen atoms
Fe        -0.00001       -0.00007        0.00033
O         -1.27999       -1.15218       -1.08346
H         -1.35467       -2.12297       -1.04761
O          1.39197       -0.15731       -1.47552
H          2.27922        0.24529       -1.47791
O         -0.75185        1.66911       -0.88798
H         -1.50107        2.20495       -0.57042
O          1.27616        1.15535        1.08469
H          1.93082        0.84043        1.73396
O         -1.39240        0.15355        1.47565
H         -2.28170       -0.24450        1.47334
O          0.75612       -1.66838        0.88594
H          1.50860       -2.19931        0.56783
H          0.43341       -2.08400        1.70596
H          1.29428       -0.64984       -2.31049
H         -1.93220       -0.83454       -1.73386
H         -1.29324        0.63814        2.31509
H         -0.42826        2.08043       -1.70981
H          1.34489        2.12666        1.05068
O 1.798441031768586 4.2631578947390604e-05 4.124811052631579
H 2.698441031768586 4.2631578947390604e-05 4.124811052631579
H 1.5054296927571449 0.8510093496183325 4.124811052631579
O -2.1947522998768694 -2.0105341165316126 3.374811052631579
H -1.2947522998768695 -2.0105341165316126 3.374811052631579
H -2.4877636388883104 -1.1595673984922275 3.374811052631579
O 0.31954942024960625 3.641095481915358 2.6248110526315784
H 1.2195494202496062 3.641095481915358 2.6248110526315784
H 0.026538081238165256 4.492062199954743 2.6248110526315784
O 2.4889858506920386 -3.2463931670959543 1.8748110526315789
H 3.3889858506920385 -3.2463931670959543 1.8748110526315789
H 2.1959745116805975 -2.3954264490565693 1.8748110526315789
O -4.290497085062763 0.7589718987365891 1.1248110526315789
H -3.3904970850627634 0.7589718987365891 1.1248110526315789
H -4.583508424074204 1.6099386167759744 1.1248110526315789
O 3.7836963925534692 2.4069178821199055 0.3748110526315792
H 4.683696392553469 2.4069178821199055 0.3748110526315792
H 3.490685053542028 3.257884600159291 0.3748110526315792
O -1.1641517774900456 -4.3305596170194685 -0.37518894736842084
H -0.2641517774900456 -4.3305596170194685 -0.37518894736842084
H -1.4571631165014867 -3.4795928989800835 -0.37518894736842084
O -2.008216674196672 3.8667497420493575 -1.1251889473684207
H -1.108216674196672 3.8667497420493575 -1.1251889473684207
H -2.301228013208113 4.7177164600887425 -1.1251889473684207
O 3.8425488123061413 -1.4032484940727183 -1.8751889473684218
H 4.742548812306142 -1.4032484940727183 -1.8751889473684218
H 3.5495374732947003 -0.5522817760333332 -1.8751889473684218
O -3.3785230541786704 -1.3945643100519372 -2.6251889473684202
H -2.4785230541786705 -1.3945643100519372 -2.6251889473684202
H -3.6715343931901114 -0.543597592012552 -2.6251889473684202
O 1.2615691947497696 2.6959337255553484 -3.375188947368421
H 2.1615691947497697 2.6959337255553484 -3.375188947368421
H 0.9685578557383285 3.5469004435947333 -3.375188947368421
O 0.5382473323476277 -1.7159612558910213 -4.125188947368421
H 1.4382473323476277 -1.7159612558910213 -4.125188947368421
H 0.24523599333618668 -0.8649945378516362 -4.125188947368421
O 2.3231736959597997 0.14577748764274553 6.138699941520467
H 3.2231736959597996 0.14577748764274553 6.138699941520467
H 2.0301623569483587 0.9967442056821307 6.138699941520467
O -2.4625623403309818 -2.2812660225821717 5.416477719298245
H -1.5625623403309818 -2.2812660225821717 5.416477719298245
H -2.755573679342423 -1.4302993045427865 5.416477719298245
O 0.57985986970434 4.624360341406174 4.694255497076023
H 1.47985986970434 4.624360341406174 4.694255497076023
H 0.286848530692899 5.475327059445559 4.694255497076023
O 3.3172546580821964 -3.937331202713053 3.972033274853801
H 4.217254658082196 -3.937331202713053 3.972033274853801
H 3.0242433190707554 -3.086364484673668 3.972033274853801
O -5.356303257197074 1.1262764480525949 3.2498110526315798
H -4.4563032571970735 1.1262764480525949 3.2498110526315798
H -5.649314596208515 1.97724316609198 3.2498110526315798
O 5.239513838311282 3.359893091150398 2.5275888304093566
H 6.139513838311283 3.359893091150398 2.5275888304093566
H 4.946502499299841 4.210859809189783 2.5275888304093566
O -1.4342083077128875 -5.884335591729444 1.8053666081871342
H -0.5342083077128875 -5.884335591729444 1.8053666081871342
H -1.7272196467243286 -5.033368873690059 1.8053666081871342
O -2.7671814062989033 5.83351117434423 1.0831443859649121
H -1.8671814062989034 5.83351117434423 1.0831443859649121
H -3.0601927453103444 6.684477892383615 1.0831443859649121
O 6.282970492347612 -2.0805299799404335 0.3609221637426902
H 7.1829704923476125 -2.0805299799404335 0.3609221637426902
H 5.989959153336171 -1.2295632619010484 0.3609221637426902
O -5.812155412716673 -2.3305088691661084 -0.36130005847953195
H -4.912155412716673 -2.3305088691661084 -0.36130005847953195
H -6.105166751728114 -1.4795421511267233 -0.36130005847953195
O 2.903277168051027 5.950706724596641 -1.0835222807017542
H 3.803277168051027 5.950706724596641 -1.0835222807017542
H 2.610265829039586 6.801673442636026 -1.0835222807017542
O 2.055598312588876 -5.8122091840010075 -1.8057445029239763
H 2.955598312588876 -5.8122091840010075 -1.8057445029239763
H 1.7625869735774349 -4.9612424659616225 -1.8057445029239763
O -4.99437626920009 3.1483817351203958 -2.5279667251461984
H -4.094376269200089 3.1483817351203958 -2.5279667251461984
H -5.287387608211531 3.999348453159781 -2.5279667251461984
O 5.684680755011072 1.3544686091754587 -3.250188947368422
H 6.584680755011072 1.3544686091754587 -3.250188947368422
H 5.391669415999631 2.205435327214844 -3.250188947368422
O -2.7722531493978715 -4.063187552584355 -3.972411169590643
H -1.8722531493978716 -4.063187552584355 -3.972411169590643
H -3.0652644884093125 -3.2122208345449703 -3.972411169590643
O -0.3909464315053407 4.604295971449678 -4.694633391812866
H 0.5090535684946593 4.604295971449678 -4.694633391812866
H -0.6839577705167816 5.455262689489063 -4.694633391812866
O 2.934203184166704 -2.169727088484716 -5.416855614035088
H 3.8342031841667037 -2.169727088484716 -5.416855614035088
H 2.6411918451552627 -1.3187603704453308 -5.416855614035088
O -1.947726253942594 0.05750764788655628 -6.13907783625731
H -1.047726253942594 0.05750764788655628 -6.13907783625731
H -2.240737592954035 0.9084743659259414 -6.13907783625731
