109
Molecule with added oxygen and hydrogen atoms
Fe        -0.00005        0.00001        0.00003
O          1.34952        0.02733        1.57729
H          1.42401        0.71067        2.26742
O          1.35567        1.04177       -1.17766
H          1.22756        1.32369       -2.10118
O          0.80739       -1.79547       -0.65912
H          0.52338       -2.69068       -0.40080
O         -1.34972       -0.02820       -1.57710
H         -2.03180        0.63960       -1.77097
O         -1.35569       -1.04131        1.17807
H         -1.22776       -1.32226        2.10190
O         -0.80706        1.79587        0.65847
H         -0.52249        2.69081        0.39984
H         -1.54347        1.90730        1.28621
H          2.24337        1.34376       -0.91389
H          2.03089       -0.64118        1.77123
H         -2.24321       -1.34385        0.91436
H          1.54360       -1.90623       -1.28723
H         -1.42378       -0.71177       -2.26706
O 1.7984557686106912 -7.368421052621418e-06 4.12499
H 2.698455768610691 -7.368421052621418e-06 4.12499
H 1.5054444295992502 0.8509593496183325 4.12499
O -2.194737563034764 -2.0105841165316125 3.37499
H -1.2947375630347642 -2.0105841165316125 3.37499
H -2.487748902046205 -1.1596173984922273 3.37499
O 0.31956415709171143 3.641045481915358 2.6249899999999995
H 1.2195641570917115 3.641045481915358 2.6249899999999995
H 0.026552818080270435 4.492012199954743 2.6249899999999995
O 2.489000587534144 -3.246443167095954 1.87499
H 3.389000587534144 -3.246443167095954 1.87499
H 2.195989248522703 -2.395476449056569 1.87499
O -4.290482348220658 0.7589218987365891 1.12499
H -3.3904823482206585 0.7589218987365891 1.12499
H -4.5834936872320995 1.6098886167759743 1.12499
O 3.7837111293955745 2.4068678821199057 0.3749900000000003
H 4.683711129395575 2.4068678821199057 0.3749900000000003
H 3.4906997903841335 3.257834600159291 0.3749900000000003
O -1.1641370406479403 -4.330609617019468 -0.37500999999999973
H -0.2641370406479403 -4.330609617019468 -0.37500999999999973
H -1.4571483796593814 -3.4796428989800834 -0.37500999999999973
O -2.0082019373545665 3.8666997420493576 -1.1250099999999996
H -1.1082019373545666 3.8666997420493576 -1.1250099999999996
H -2.3012132763660076 4.717666460088743 -1.1250099999999996
O 3.8425635491482466 -1.4032984940727184 -1.8750100000000007
H 4.7425635491482465 -1.4032984940727184 -1.8750100000000007
H 3.5495522101368056 -0.5523317760333333 -1.8750100000000007
O -3.378508317336565 -1.3946143100519373 -2.625009999999999
H -2.478508317336565 -1.3946143100519373 -2.625009999999999
H -3.671519656348006 -0.5436475920125521 -2.625009999999999
O 1.2615839315918749 2.6958837255553485 -3.37501
H 2.161583931591875 2.6958837255553485 -3.37501
H 0.9685725925804338 3.5468504435947334 -3.37501
O 0.5382620691897329 -1.7160112558910214 -4.12501
H 1.438262069189733 -1.7160112558910214 -4.12501
H 0.24525073017829185 -0.8650445378516363 -4.12501
O 2.323188432801905 0.1457274876427455 6.138878888888888
H 3.223188432801905 0.1457274876427455 6.138878888888888
H 2.030177093790464 0.9966942056821306 6.138878888888888
O -2.4625476034888765 -2.2813160225821716 5.4166566666666665
H -1.5625476034888766 -2.2813160225821716 5.4166566666666665
H -2.7555589425003175 -1.4303493045427864 5.4166566666666665
O 0.5798746065464453 4.624310341406174 4.694434444444444
H 1.4798746065464452 4.624310341406174 4.694434444444444
H 0.2868632675350043 5.475277059445559 4.694434444444444
O 3.3172693949243017 -3.937381202713053 3.972212222222222
H 4.217269394924302 -3.937381202713053 3.972212222222222
H 3.0242580559128607 -3.086414484673668 3.972212222222222
O -5.356288520354969 1.1262264480525948 3.2499900000000004
H -4.456288520354969 1.1262264480525948 3.2499900000000004
H -5.64929985936641 1.97719316609198 3.2499900000000004
O 5.239528575153387 3.359843091150398 2.527767777777777
H 6.1395285751533875 3.359843091150398 2.527767777777777
H 4.946517236141946 4.210809809189783 2.527767777777777
O -1.4341935708707823 -5.884385591729444 1.8055455555555548
H -0.5341935708707822 -5.884385591729444 1.8055455555555548
H -1.7272049098822233 -5.033418873690059 1.8055455555555548
O -2.767166669456798 5.83346117434423 1.0833233333333327
H -1.867166669456798 5.83346117434423 1.0833233333333327
H -3.060178008468239 6.684427892383615 1.0833233333333327
O 6.282985229189717 -2.0805799799404334 0.36110111111111076
H 7.182985229189717 -2.0805799799404334 0.36110111111111076
H 5.989973890178276 -1.2296132619010482 0.36110111111111076
O -5.812140675874568 -2.3305588691661083 -0.3611211111111114
H -4.912140675874568 -2.3305588691661083 -0.3611211111111114
H -6.105152014886009 -1.4795921511267232 -0.3611211111111114
O 2.9032919048931323 5.950656724596641 -1.0833433333333335
H 3.803291904893132 5.950656724596641 -1.0833433333333335
H 2.610280565881691 6.801623442636026 -1.0833433333333335
O 2.055613049430981 -5.812259184001007 -1.8055655555555556
H 2.955613049430981 -5.812259184001007 -1.8055655555555556
H 1.7626017104195402 -4.961292465961622 -1.8055655555555556
O -4.994361532357985 3.148331735120396 -2.5277877777777777
H -4.0943615323579845 3.148331735120396 -2.5277877777777777
H -5.287372871369426 3.9992984531597813 -2.5277877777777777
O 5.6846954918531765 1.3544186091754586 -3.2500100000000014
H 6.584695491853177 1.3544186091754586 -3.2500100000000014
H 5.391684152841735 2.205385327214844 -3.2500100000000014
O -2.772238412555766 -4.063237552584355 -3.9722322222222224
H -1.8722384125557663 -4.063237552584355 -3.9722322222222224
H -3.0652497515672072 -3.21227083454497 -3.9722322222222224
O -0.3909316946632354 4.604245971449678 -4.694454444444445
H 0.5090683053367646 4.604245971449678 -4.694454444444445
H -0.6839430336746763 5.455212689489063 -4.694454444444445
O 2.934217921008809 -2.169777088484716 -5.416676666666667
H 3.834217921008809 -2.169777088484716 -5.416676666666667
H 2.641206581997368 -1.3188103704453307 -5.416676666666667
O -1.9477115171004886 0.05745764788655626 -6.138898888888889
H -1.0477115171004887 0.05745764788655626 -6.138898888888889
H -2.2407228561119297 0.9084243659259414 -6.138898888888889
