109
Molecule with added oxygen and hydrogen atoms
Fe         0.00002        0.00003        0.00001
O          0.43944        1.93274       -0.43676
H          1.10799        2.48609        0.00430
O         -1.39629        0.61954        1.33637
H         -1.96196        0.04864        1.88599
O         -1.40707       -0.01136       -1.46254
H         -1.26821       -0.25351       -2.39523
O         -0.43931       -1.93266        0.43684
H         -0.01954       -2.47845        1.12585
O          1.39619       -0.61933       -1.33658
H          1.96233       -0.04856       -1.88577
O          1.40696        0.01096        1.46269
H          1.26815        0.25368        2.39523
H          2.34596       -0.22533        1.36142
H         -1.62357        1.54238        1.54754
H          0.02090        2.47819       -1.12605
H          1.62294       -1.54223       -1.54816
H         -2.34609        0.22485       -1.36116
H         -1.10868       -2.48581       -0.00430
O 1.7984452422949015 -7.368421052679851e-06 4.124983684210527
H 2.6984452422949015 -7.368421052679851e-06 4.124983684210527
H 1.5054339032834605 0.8509593496183325 4.124983684210527
O -2.1947480893505533 -2.010584116531613 3.3749836842105263
H -1.2947480893505534 -2.010584116531613 3.3749836842105263
H -2.4877594283619944 -1.1596173984922278 3.3749836842105263
O 0.31955363077592197 3.6410454819153575 2.624983684210526
H 1.219553630775922 3.6410454819153575 2.624983684210526
H 0.026542291764480974 4.492012199954742 2.624983684210526
O 2.4889900612183546 -3.2464431670959546 1.8749836842105263
H 3.3889900612183546 -3.2464431670959546 1.8749836842105263
H 2.1959787222069136 -2.395476449056569 1.8749836842105263
O -4.290492874536448 0.7589218987365891 1.1249836842105263
H -3.390492874536448 0.7589218987365891 1.1249836842105263
H -4.583504213547889 1.6098886167759743 1.1249836842105263
O 3.7837006030797853 2.406867882119905 0.3749836842105266
H 4.683700603079785 2.406867882119905 0.3749836842105266
H 3.4906892640683442 3.25783460015929 0.3749836842105266
O -1.16414756696373 -4.330609617019468 -0.3750163157894735
H -0.26414756696373 -4.330609617019468 -0.3750163157894735
H -1.457158905975171 -3.4796428989800834 -0.3750163157894735
O -2.0082124636703558 3.866699742049357 -1.1250163157894733
H -1.1082124636703559 3.866699742049357 -1.1250163157894733
H -2.301223802681797 4.717666460088743 -1.1250163157894733
O 3.8425530228324574 -1.4032984940727184 -1.8750163157894744
H 4.742553022832458 -1.4032984940727184 -1.8750163157894744
H 3.5495416838210163 -0.5523317760333333 -1.8750163157894744
O -3.3785188436523543 -1.3946143100519373 -2.625016315789473
H -2.4785188436523544 -1.3946143100519373 -2.625016315789473
H -3.6715301826637954 -0.5436475920125521 -2.625016315789473
O 1.2615734052760852 2.695883725555348 -3.3750163157894737
H 2.1615734052760853 2.695883725555348 -3.3750163157894737
H 0.9685620662646441 3.5468504435947334 -3.3750163157894737
O 0.5382515428739434 -1.7160112558910214 -4.125016315789473
H 1.4382515428739433 -1.7160112558910214 -4.125016315789473
H 0.2452402038625024 -0.8650445378516363 -4.125016315789473
O 2.3231779064861158 0.14572748764274532 6.138872573099415
H 3.2231779064861157 0.14572748764274532 6.138872573099415
H 2.0301665674746747 0.9966942056821305 6.138872573099415
O -2.4625581298046657 -2.281316022582172 5.416650350877194
H -1.5625581298046658 -2.281316022582172 5.416650350877194
H -2.7555694688161068 -1.4303493045427869 5.416650350877194
O 0.5798640802306558 4.624310341406174 4.694428128654971
H 1.479864080230656 4.624310341406174 4.694428128654971
H 0.28685274121921484 5.475277059445559 4.694428128654971
O 3.3172588686085125 -3.9373812027130533 3.972205906432749
H 4.217258868608512 -3.9373812027130533 3.972205906432749
H 3.0242475295970714 -3.086414484673668 3.972205906432749
O -5.356299046670759 1.1262264480525945 3.2499836842105276
H -4.456299046670758 1.1262264480525945 3.2499836842105276
H -5.6493103856822 1.9771931660919797 3.2499836842105276
O 5.239518048837597 3.3598430911503976 2.5277614619883044
H 6.139518048837598 3.3598430911503976 2.5277614619883044
H 4.946506709826156 4.210809809189783 2.5277614619883044
O -1.4342040971865717 -5.884385591729444 1.805539239766082
H -0.5342040971865717 -5.884385591729444 1.805539239766082
H -1.7272154361980128 -5.033418873690059 1.805539239766082
O -2.7671771957725873 5.83346117434423 1.08331701754386
H -1.8671771957725873 5.83346117434423 1.08331701754386
H -3.0601885347840283 6.684427892383615 1.08331701754386
O 6.282974702873927 -2.080579979940434 0.36109479532163813
H 7.182974702873928 -2.080579979940434 0.36109479532163813
H 5.989963363862486 -1.2296132619010487 0.36109479532163813
O -5.812151202190358 -2.3305588691661088 -0.361127426900584
H -4.9121512021903575 -2.3305588691661088 -0.361127426900584
H -6.105162541201799 -1.4795921511267236 -0.361127426900584
O 2.903281378577343 5.950656724596641 -1.0833496491228063
H 3.803281378577343 5.950656724596641 -1.0833496491228063
H 2.610270039565902 6.801623442636026 -1.0833496491228063
O 2.055602523115192 -5.812259184001007 -1.8055718713450284
H 2.955602523115192 -5.812259184001007 -1.8055718713450284
H 1.762591184103751 -4.961292465961622 -1.8055718713450284
O -4.9943720586737745 3.1483317351203954 -2.5277940935672505
H -4.094372058673774 3.1483317351203954 -2.5277940935672505
H -5.287383397685216 3.9992984531597804 -2.5277940935672505
O 5.684684965537387 1.3544186091754584 -3.250016315789474
H 6.584684965537387 1.3544186091754584 -3.250016315789474
H 5.391673626525946 2.2053853272148434 -3.250016315789474
O -2.7722489388715554 -4.063237552584355 -3.972238538011695
H -1.8722489388715555 -4.063237552584355 -3.972238538011695
H -3.0652602778829965 -3.21227083454497 -3.972238538011695
O -0.3909422209790248 4.604245971449678 -4.694460760233918
H 0.5090577790209752 4.604245971449678 -4.694460760233918
H -0.6839535599904658 5.455212689489063 -4.694460760233918
O 2.93420739469302 -2.1697770884847163 -5.416682982456139
H 3.8342073946930197 -2.1697770884847163 -5.416682982456139
H 2.641196055681579 -1.3188103704453311 -5.416682982456139
O -1.947722043416278 0.057457647886556065 -6.138905204678362
H -1.047722043416278 0.057457647886556065 -6.138905204678362
H -2.240733382427719 0.9084243659259412 -6.138905204678362
