118
Molecule with added oxygen and hydrogen atoms
C           -0.96247656392862       -3.00301707300637        0.14293835725967
C           -1.74971855323224       -2.13147683577008        0.88692009891786
C           -1.29752561401127       -0.87313330915782        1.17862748861677
C           -0.01431789596390       -0.36309121317391        0.76419085401142
C            0.77668911419918       -1.29366149353515       -0.00881899094533
C            0.27635938069700       -2.55696329314281       -0.28118409392406
C            2.15265017084654       -0.98609525159669       -0.55230928272992
O            2.76735404492280        0.06886035373447       -0.29614375455836
O            2.67408572659403       -1.88229896157297       -1.30794670499299
O            0.27797206015766        0.82341723216913        1.09548288815342
H           -1.30083438932070       -4.00313503796699       -0.09411993002442
H           -2.72543110416628       -2.44896734151842        1.24076021946569
H           -1.90377194005464       -0.19036563271933        1.76688572841006
H            0.92040574318078       -3.21111281667308       -0.86524841451172
Fe           2.21118019177447        1.93084808610045        0.98375215331586
C            0.89866940299874        3.62312559350809        6.48442297062271
C            0.37369356231426        4.58412298685843        5.62797437660178
C            0.60588308737462        4.50879112694029        4.28086561374023
C            1.37324799271447        3.46188757657383        3.65453996619037
C            1.92057830160331        2.49219840633350        4.57577453882284
C            1.66101276772854        2.60941909455084        5.93196038180084
C            2.78416361612686        1.32509658053455        4.15788187378767
O            2.91349571690601        0.96414139938754        2.97033208058581
O            3.37640985893052        0.69537725059714        5.10563660858551
O            1.50953968966944        3.50657968583773        2.39551895267442
H            0.71974186016474        3.66171837322707        7.55103207323646
H           -0.22466179910737        5.39675943356349        6.02712088263299
H            0.19544553237301        5.25479728696314        3.60717757110411
H            2.09853404864487        1.84595981681954        6.57215055234366
C            3.84619378586370        4.74648120390845       -3.93615666585750
C            2.49444418744685        4.44855661905855       -4.06457364066759
C            1.81000349842130        3.88725132838614       -3.02037107569738
C            2.40928962500552        3.55577594798994       -1.75232945301948
C            3.81143957089149        3.88978196915151       -1.64882734823351
C            4.46264666428311        4.45880593865838       -2.73142729464633
C            4.64605623414683        3.65351552862489       -0.41144227276469
O            4.23754796271845        3.00697109861850        0.57471786608846
O            5.82279966169879        4.16347067975425       -0.42079160439863
O            1.66278156255246        3.04434486674512       -0.86623658901988
H            4.40560185897513        5.18321508441119       -4.75316055613509
H            1.97894008904561        4.65703443734557       -4.99674393866218
H            0.75653550083153        3.64173587156476       -3.11876328773910
H            5.51873699800305        4.68140888194186       -2.59366512841251
O 4.0489333192571415 1.8797239879075518 9.213889119345744
H 4.948933319257142 1.8797239879075518 9.213889119345744
H 3.7559219802457005 2.730690705946937 9.213889119345744
O -1.3914002431400676 -0.8898601114328353 8.523306119225902
H -0.4914002431400676 -0.8898601114328353 8.523306119225902
H -1.6844115821515087 -0.038893393393450104 8.523306119225902
O 2.0847032133078716 7.039264883154597 7.832723119106058
H 2.9847032133078715 7.039264883154597 7.832723119106058
H 1.7916918742964305 7.890231601193982 7.832723119106058
O 5.276796699074378 -2.874407681276466 7.142140118986215
H 6.176796699074378 -2.874407681276466 7.142140118986215
H 4.983785360062937 -2.023440963237081 7.142140118986215
O -4.899547399327483 3.035043797122402 6.451557118866372
H -3.9995473993274833 3.035043797122402 6.451557118866372
H -5.192558738338924 3.8860105151617867 6.451557118866372
O 7.666250442011281 5.718288362969457 5.76097411874653
H 8.566250442011281 5.718288362969457 5.76097411874653
H 7.37323910299984 6.569255081008842 5.76097411874653
O -0.33404743704511897 -5.433475772584149 5.070391118626686
H 0.565952562954881 -5.433475772584149 5.070391118626686
H -0.62705877605656 -4.582509054544764 5.070391118626686
O -2.0146294204554147 8.90088066366241 4.379808118506843
H -1.1146294204554148 8.90088066366241 4.379808118506843
H -2.3076407594668558 9.751847381701795 4.379808118506843
O 9.314019896726348 -0.9257764998515798 3.6892251183869997
H 10.214019896726349 -0.9257764998515798 3.6892251183869997
H 9.021008557714907 -0.07480978181219466 3.6892251183869997
O -6.114114315177625 -1.3177151542517465 2.998642118267157
H -5.214114315177625 -1.3177151542517465 2.998642118267157
H -6.407125654189066 -0.4667484362123613 2.998642118267157
O 5.243517545581243 9.597556249720173 2.3080591181473133
H 6.143517545581243 9.597556249720173 2.3080591181473133
H 4.950506206569802 10.448522967759558 2.3080591181473133
O 4.20711669728469 -6.33049553439154 1.6174761180274708
H 5.10711669728469 -6.33049553439154 1.6174761180274708
H 3.9141053582732486 -5.479528816352155 1.6174761180274708
O -5.836859093271091 6.208018384536634 0.9268931179076274
H -4.9368590932710905 6.208018384536634 0.9268931179076274
H -6.129870432282532 7.058985102576019 0.9268931179076274
O 10.035816559976764 3.727303047537683 0.23631011778778366
H 10.935816559976764 3.727303047537683 0.23631011778778366
H 9.742805220965323 4.578269765577068 0.23631011778778366
O -3.268829829548213 -5.09104967875949 -0.4542728823320584
H -2.368829829548213 -5.09104967875949 -0.4542728823320584
H -3.561841168559654 -4.240082960720105 -0.4542728823320584
O 0.5549744376434582 10.190228809413556 -1.144855882451902
H 1.4549744376434584 10.190228809413556 -1.144855882451902
H 0.2619630986320172 11.041195527452942 -1.144855882451902
O 7.885483337929118 -3.3908087220921406 -1.8354388825717467
H 8.785483337929119 -3.3908087220921406 -1.8354388825717467
H 7.592471998917677 -2.5398420040527556 -1.8354388825717467
O -6.272973262353647 1.552832957766126 -2.526021882691587
H -5.372973262353646 1.552832957766126 -2.526021882691587
H -6.565984601365088 2.4037996758055113 -2.526021882691587
O 6.99974016891044 7.221449051299842 -3.216604882811431
H 7.899740168910441 7.221449051299842 -3.216604882811431
H 6.706728829898999 8.072415769339228 -3.216604882811431
O 1.3015414650157593 -5.264428611867712 -3.9071878829312747
H 2.2015414650157594 -5.264428611867712 -3.9071878829312747
H 1.0085301260043182 -4.413461893828327 -3.9071878829312747
O -2.617824017548974 6.972305061936863 -4.5977708830511155
H -1.717824017548974 6.972305061936863 -4.5977708830511155
H -2.910835356560415 7.823271779976248 -4.5977708830511155
O 7.5689770186263186 1.0808977059644158 -5.28835388317096
H 8.468977018626319 1.0808977059644158 -5.28835388317096
H 7.2759656796148775 1.931864424003801 -5.28835388317096
O -2.6196382787770554 -1.0783806128599236 -5.978936883290805
H -1.7196382787770554 -1.0783806128599236 -5.978936883290805
H -2.9126496177884964 -0.22741389482053842 -5.978936883290805
O 2.531790442134911 5.879859146812308 -6.669519883410647
H 3.431790442134911 5.879859146812308 -6.669519883410647
H 2.23877910312347 6.730825864851693 -6.669519883410647
O 2.8335991296627636 -0.217413757494765 -7.360102883530491
H 3.7335991296627635 -0.217413757494765 -7.360102883530491
H 2.5405877906513226 0.6335529605446202 -7.360102883530491
