 xtb: 6.6.0 (conda-forge)
          10302407373D

367264  0     0  0            999 V2000
   -0.7770   -3.1030    1.5084 C   0  0  0  0  0  0  0  0  0  0  0  0
   -1.5736   -2.2510    2.2621 C   0  0  0  0  0  0  0  0  0  0  0  0
   -1.3258   -0.9027    2.2676 C   0  0  0  0  0  0  0  0  0  0  0  0
   -0.2613   -0.2890    1.5316 C   0  0  0  0  0  0  0  0  0  0  0  0
    0.5395   -1.1927    0.7537 C   0  0  0  0  0  0  0  0  0  0  0  0
    0.2553   -2.5497    0.7740 C   0  0  0  0  0  0  0  0  0  0  0  0
    1.7076   -0.7677   -0.1095 C   0  0  0  0  0  0  0  0  0  0  0  0
    2.2525    0.3486   -0.0108 O   0  0  0  0  0  0  0  0  0  0  0  0
    2.1277   -1.6365   -0.9484 O   0  0  0  0  0  0  0  0  0  0  0  0
   -0.1435    0.9828    1.5953 O   0  0  0  0  0  0  0  0  0  0  0  0
   -0.9533   -4.1698    1.4958 H   0  0  0  0  0  0  0  0  0  0  0  0
   -2.3920   -2.6507    2.8487 H   0  0  0  0  0  0  0  0  0  0  0  0
   -1.9384   -0.2374    2.8652 H   0  0  0  0  0  0  0  0  0  0  0  0
    0.8922   -3.1872    0.1670 H   0  0  0  0  0  0  0  0  0  0  0  0
    1.7754    2.2341    1.2836 Fe  0  0  0  0  0  0  0  0  0  0  0  0
    1.2142    3.9011    6.8947 C   0  0  0  0  0  0  0  0  0  0  0  0
    0.5917    4.8804    6.1248 C   0  0  0  0  0  0  0  0  0  0  0  0
    0.6158    4.8073    4.7592 C   0  0  0  0  0  0  0  0  0  0  0  0
    1.2496    3.7428    4.0251 C   0  0  0  0  0  0  0  0  0  0  0  0
    1.8901    2.7493    4.8541 C   0  0  0  0  0  0  0  0  0  0  0  0
    1.8492    2.8670    6.2384 C   0  0  0  0  0  0  0  0  0  0  0  0
    2.6208    1.5763    4.2983 C   0  0  0  0  0  0  0  0  0  0  0  0
    2.6369    1.2796    3.0885 O   0  0  0  0  0  0  0  0  0  0  0  0
    3.2711    0.8413    5.1446 O   0  0  0  0  0  0  0  0  0  0  0  0
    1.2027    3.7841    2.7599 O   0  0  0  0  0  0  0  0  0  0  0  0
    1.2007    3.9463    7.9744 H   0  0  0  0  0  0  0  0  0  0  0  0
    0.0828    5.7031    6.6127 H   0  0  0  0  0  0  0  0  0  0  0  0
    0.1325    5.5694    4.1603 H   0  0  0  0  0  0  0  0  0  0  0  0
    2.3520    2.0896    6.8056 H   0  0  0  0  0  0  0  0  0  0  0  0
    3.1858    3.9751   -4.1129 C   0  0  0  0  0  0  0  0  0  0  0  0
    1.8138    3.7550   -4.0955 C   0  0  0  0  0  0  0  0  0  0  0  0
    1.1599    3.5484   -2.9079 C   0  0  0  0  0  0  0  0  0  0  0  0
    1.8275    3.5295   -1.6429 C   0  0  0  0  0  0  0  0  0  0  0  0
    3.2436    3.7566   -1.6888 C   0  0  0  0  0  0  0  0  0  0  0  0
    3.8656    3.9710   -2.9096 C   0  0  0  0  0  0  0  0  0  0  0  0
    4.1167    3.7760   -0.4614 C   0  0  0  0  0  0  0  0  0  0  0  0
    3.7748    3.3035    0.6358 O   0  0  0  0  0  0  0  0  0  0  0  0
    5.2697    4.3226   -0.6218 O   0  0  0  0  0  0  0  0  0  0  0  0
    1.1342    3.3770   -0.5803 O   0  0  0  0  0  0  0  0  0  0  0  0
    3.7123    4.1346   -5.0431 H   0  0  0  0  0  0  0  0  0  0  0  0
    1.2570    3.7422   -5.0247 H   0  0  0  0  0  0  0  0  0  0  0  0
    0.0921    3.3632   -2.8951 H   0  0  0  0  0  0  0  0  0  0  0  0
    4.9374    4.1430   -2.8906 H   0  0  0  0  0  0  0  0  0  0  0  0
    7.3958   -0.8315    8.5927 O   0  0  0  0  0  0  0  0  0  0  0  0
    6.7881   -0.6789    7.8640 H   0  0  0  0  0  0  0  0  0  0  0  0
    8.0356   -0.1123    8.5869 H   0  0  0  0  0  0  0  0  0  0  0  0
   -0.8515   -1.6480    7.8889 O   0  0  0  0  0  0  0  0  0  0  0  0
   -0.9155   -0.7802    8.2995 H   0  0  0  0  0  0  0  0  0  0  0  0
   -0.3668   -1.5366    7.0673 H   0  0  0  0  0  0  0  0  0  0  0  0
    4.7581    7.8590    8.7940 O   0  0  0  0  0  0  0  0  0  0  0  0
    4.9241    6.9278    8.9671 H   0  0  0  0  0  0  0  0  0  0  0  0
    3.9351    7.9124    8.2992 H   0  0  0  0  0  0  0  0  0  0  0  0
    4.4298   -0.7555    3.4536 O   0  0  0  0  0  0  0  0  0  0  0  0
    3.9507   -0.3972    2.6917 H   0  0  0  0  0  0  0  0  0  0  0  0
    4.0245   -0.2037    4.2032 H   0  0  0  0  0  0  0  0  0  0  0  0
   -4.5554    3.7790    4.2988 O   0  0  0  0  0  0  0  0  0  0  0  0
   -4.0998    3.8703    3.4568 H   0  0  0  0  0  0  0  0  0  0  0  0
   -3.9655    3.2944    4.8821 H   0  0  0  0  0  0  0  0  0  0  0  0
    7.6021    4.0715    6.2748 O   0  0  0  0  0  0  0  0  0  0  0  0
    8.0463    4.1500    5.4247 H   0  0  0  0  0  0  0  0  0  0  0  0
    6.7436    3.6754    6.1064 H   0  0  0  0  0  0  0  0  0  0  0  0
    2.8318   -5.0230    5.7599 O   0  0  0  0  0  0  0  0  0  0  0  0
    3.4108   -4.3898    6.1959 H   0  0  0  0  0  0  0  0  0  0  0  0
    2.4987   -4.5948    4.9671 H   0  0  0  0  0  0  0  0  0  0  0  0
   -3.8302    9.3780    4.0227 O   0  0  0  0  0  0  0  0  0  0  0  0
   -3.5432    8.4700    3.8890 H   0  0  0  0  0  0  0  0  0  0  0  0
   -3.5633    9.8749    3.2424 H   0  0  0  0  0  0  0  0  0  0  0  0
    7.0693   -0.2072    3.1626 O   0  0  0  0  0  0  0  0  0  0  0  0
    7.0178    0.6050    2.6519 H   0  0  0  0  0  0  0  0  0  0  0  0
    6.1373   -0.4765    3.3143 H   0  0  0  0  0  0  0  0  0  0  0  0
   -6.9305    0.7102    0.9790 O   0  0  0  0  0  0  0  0  0  0  0  0
   -5.9971    0.5416    0.8233 H   0  0  0  0  0  0  0  0  0  0  0  0
   -7.0903    0.5750    1.9188 H   0  0  0  0  0  0  0  0  0  0  0  0
    4.6601    8.0901    3.3288 O   0  0  0  0  0  0  0  0  0  0  0  0
    4.1209    7.5441    2.7515 H   0  0  0  0  0  0  0  0  0  0  0  0
    5.1877    7.4874    3.8610 H   0  0  0  0  0  0  0  0  0  0  0  0
    5.8684   -5.2683    1.2489 O   0  0  0  0  0  0  0  0  0  0  0  0
    6.4096   -4.8564    1.9300 H   0  0  0  0  0  0  0  0  0  0  0  0
    5.1037   -4.7022    1.1197 H   0  0  0  0  0  0  0  0  0  0  0  0
   -1.3547    2.6687   -0.1365 O   0  0  0  0  0  0  0  0  0  0  0  0
   -0.4688    3.0336   -0.3972 H   0  0  0  0  0  0  0  0  0  0  0  0
   -1.0684    2.0301    0.5492 H   0  0  0  0  0  0  0  0  0  0  0  0
    7.5026    4.7161    0.7772 O   0  0  0  0  0  0  0  0  0  0  0  0
    8.0487    5.0196    0.0443 H   0  0  0  0  0  0  0  0  0  0  0  0
    6.6221    4.5271    0.3698 H   0  0  0  0  0  0  0  0  0  0  0  0
   -4.9365   -4.1617   -2.5579 O   0  0  0  0  0  0  0  0  0  0  0  0
   -4.4959   -4.8145   -3.1115 H   0  0  0  0  0  0  0  0  0  0  0  0
   -4.2963   -3.8678   -1.9043 H   0  0  0  0  0  0  0  0  0  0  0  0
   -0.3321    8.3075    0.0492 O   0  0  0  0  0  0  0  0  0  0  0  0
   -0.9028    7.5436    0.1753 H   0  0  0  0  0  0  0  0  0  0  0  0
    0.5571    7.9653   -0.0742 H   0  0  0  0  0  0  0  0  0  0  0  0
    7.2872   -0.7805   -2.0120 O   0  0  0  0  0  0  0  0  0  0  0  0
    6.9609    0.1190   -1.9289 H   0  0  0  0  0  0  0  0  0  0  0  0
    6.6481   -1.3410   -1.5637 H   0  0  0  0  0  0  0  0  0  0  0  0
   -3.0324    2.5575   -2.2556 O   0  0  0  0  0  0  0  0  0  0  0  0
   -2.3996    2.4868   -1.5105 H   0  0  0  0  0  0  0  0  0  0  0  0
   -3.6380    3.2598   -1.9965 H   0  0  0  0  0  0  0  0  0  0  0  0
    6.0582    9.8289   -1.4855 O   0  0  0  0  0  0  0  0  0  0  0  0
    5.8943    8.8996   -1.3060 H   0  0  0  0  0  0  0  0  0  0  0  0
    5.7146   10.3271   -0.7366 H   0  0  0  0  0  0  0  0  0  0  0  0
    1.6085   -5.5249   -4.8029 O   0  0  0  0  0  0  0  0  0  0  0  0
    1.5800   -4.8743   -4.0969 H   0  0  0  0  0  0  0  0  0  0  0  0
    1.7589   -5.0432   -5.6229 H   0  0  0  0  0  0  0  0  0  0  0  0
   -2.6032    7.7740   -4.7298 O   0  0  0  0  0  0  0  0  0  0  0  0
   -2.2794    6.9836   -4.2895 H   0  0  0  0  0  0  0  0  0  0  0  0
   -2.4743    8.5075   -4.1204 H   0  0  0  0  0  0  0  0  0  0  0  0
    9.9447    2.9351   -4.9650 O   0  0  0  0  0  0  0  0  0  0  0  0
   10.3037    2.2250   -4.4238 H   0  0  0  0  0  0  0  0  0  0  0  0
    9.0733    3.1444   -4.6183 H   0  0  0  0  0  0  0  0  0  0  0  0
   -1.2993   -1.2379   -5.2188 O   0  0  0  0  0  0  0  0  0  0  0  0
   -0.8030   -0.9035   -4.4680 H   0  0  0  0  0  0  0  0  0  0  0  0
   -2.2302   -1.0784   -5.0316 H   0  0  0  0  0  0  0  0  0  0  0  0
    2.1212    9.3414   -5.7946 O   0  0  0  0  0  0  0  0  0  0  0  0
    2.1035    8.6811   -5.0967 H   0  0  0  0  0  0  0  0  0  0  0  0
    1.6450    8.9717   -6.5450 H   0  0  0  0  0  0  0  0  0  0  0  0
    3.9475   -0.8922   -6.1272 O   0  0  0  0  0  0  0  0  0  0  0  0
    3.7601   -0.7887   -5.1910 H   0  0  0  0  0  0  0  0  0  0  0  0
    3.3276   -0.3303   -6.6030 H   0  0  0  0  0  0  0  0  0  0  0  0
    5.1208    2.7948   11.4691 O   0  0  0  0  0  0  0  0  0  0  0  0
    5.4735    2.0161   11.9121 H   0  0  0  0  0  0  0  0  0  0  0  0
    4.7438    2.4979   10.6366 H   0  0  0  0  0  0  0  0  0  0  0  0
   -4.5894   -4.1944   11.1899 O   0  0  0  0  0  0  0  0  0  0  0  0
   -4.2629   -4.8951   11.7633 H   0  0  0  0  0  0  0  0  0  0  0  0
   -3.9034   -4.0242   10.5374 H   0  0  0  0  0  0  0  0  0  0  0  0
    3.4616   12.3137   11.0757 O   0  0  0  0  0  0  0  0  0  0  0  0
    4.3609   11.9946   11.1991 H   0  0  0  0  0  0  0  0  0  0  0  0
    3.2333   12.1590   10.1540 H   0  0  0  0  0  0  0  0  0  0  0  0
    6.8658   -2.6102   10.7723 O   0  0  0  0  0  0  0  0  0  0  0  0
    6.9218   -3.4744   10.3524 H   0  0  0  0  0  0  0  0  0  0  0  0
    7.0364   -1.9633   10.0706 H   0  0  0  0  0  0  0  0  0  0  0  0
   -8.0983    4.5300    8.6319 O   0  0  0  0  0  0  0  0  0  0  0  0
   -8.6810    3.8226    8.9264 H   0  0  0  0  0  0  0  0  0  0  0  0
   -7.6381    4.2054    7.8519 H   0  0  0  0  0  0  0  0  0  0  0  0
   10.2170    8.4281    7.5042 O   0  0  0  0  0  0  0  0  0  0  0  0
   10.3698    8.0877    6.6175 H   0  0  0  0  0  0  0  0  0  0  0  0
    9.3731    8.0749    7.8015 H   0  0  0  0  0  0  0  0  0  0  0  0
    0.8635   -6.1882   10.4710 O   0  0  0  0  0  0  0  0  0  0  0  0
    0.9303   -6.8820    9.8074 H   0  0  0  0  0  0  0  0  0  0  0  0
    0.7925   -5.3533    9.9992 H   0  0  0  0  0  0  0  0  0  0  0  0
    0.6895   10.9449    6.2958 O   0  0  0  0  0  0  0  0  0  0  0  0
    0.5975   10.1267    5.7995 H   0  0  0  0  0  0  0  0  0  0  0  0
   -0.1801   11.1615    6.6477 H   0  0  0  0  0  0  0  0  0  0  0  0
    9.4670   -1.5424    3.8262 O   0  0  0  0  0  0  0  0  0  0  0  0
    9.8822   -0.8724    4.3785 H   0  0  0  0  0  0  0  0  0  0  0  0
    8.6046   -1.1781    3.5733 H   0  0  0  0  0  0  0  0  0  0  0  0
   -5.9962   -1.7519    5.8789 O   0  0  0  0  0  0  0  0  0  0  0  0
   -5.2385   -1.2551    6.2008 H   0  0  0  0  0  0  0  0  0  0  0  0
   -6.7681   -1.4262    6.3545 H   0  0  0  0  0  0  0  0  0  0  0  0
    6.2369   12.1749    5.9312 O   0  0  0  0  0  0  0  0  0  0  0  0
    5.3637   11.7839    6.0288 H   0  0  0  0  0  0  0  0  0  0  0  0
    6.8365   11.4623    5.6899 H   0  0  0  0  0  0  0  0  0  0  0  0
    5.3845   -9.6828    3.9479 O   0  0  0  0  0  0  0  0  0  0  0  0
    5.9000   -9.6244    3.1372 H   0  0  0  0  0  0  0  0  0  0  0  0
    4.7285   -8.9802    3.9146 H   0  0  0  0  0  0  0  0  0  0  0  0
   -8.7877    6.6228    3.6357 O   0  0  0  0  0  0  0  0  0  0  0  0
   -8.6982    5.6772    3.4830 H   0  0  0  0  0  0  0  0  0  0  0  0
   -7.9896    6.9105    4.0890 H   0  0  0  0  0  0  0  0  0  0  0  0
   12.3795    5.0930    3.5691 O   0  0  0  0  0  0  0  0  0  0  0  0
   13.1879    4.6814    3.2470 H   0  0  0  0  0  0  0  0  0  0  0  0
   11.7595    5.1096    2.8345 H   0  0  0  0  0  0  0  0  0  0  0  0
   -2.6304   -6.2986    6.4582 O   0  0  0  0  0  0  0  0  0  0  0  0
   -1.7968   -5.9684    6.1118 H   0  0  0  0  0  0  0  0  0  0  0  0
   -3.3033   -5.6461    6.2412 H   0  0  0  0  0  0  0  0  0  0  0  0
    2.0746   12.6838    1.2670 O   0  0  0  0  0  0  0  0  0  0  0  0
    1.1384   12.7233    1.0485 H   0  0  0  0  0  0  0  0  0  0  0  0
    2.1973   11.9267    1.8473 H   0  0  0  0  0  0  0  0  0  0  0  0
   11.2893   -4.1895   -0.2021 O   0  0  0  0  0  0  0  0  0  0  0  0
   11.7982   -3.8760    0.5523 H   0  0  0  0  0  0  0  0  0  0  0  0
   10.4602   -3.7023   -0.2025 H   0  0  0  0  0  0  0  0  0  0  0  0
   -8.3557    2.7546   -0.4127 O   0  0  0  0  0  0  0  0  0  0  0  0
   -7.8215    2.0926    0.0543 H   0  0  0  0  0  0  0  0  0  0  0  0
   -9.1226    2.2819   -0.7522 H   0  0  0  0  0  0  0  0  0  0  0  0
    9.7382    9.8233    2.2254 O   0  0  0  0  0  0  0  0  0  0  0  0
    9.8698   10.2054    1.3518 H   0  0  0  0  0  0  0  0  0  0  0  0
    9.2127    9.0270    2.1072 H   0  0  0  0  0  0  0  0  0  0  0  0
    3.3504   -9.1136   -1.1558 O   0  0  0  0  0  0  0  0  0  0  0  0
    4.3100   -9.1028   -1.2345 H   0  0  0  0  0  0  0  0  0  0  0  0
    3.0627   -8.1982   -1.1014 H   0  0  0  0  0  0  0  0  0  0  0  0
   -5.5551    7.6021   -0.4908 O   0  0  0  0  0  0  0  0  0  0  0  0
   -5.9801    6.8091   -0.1512 H   0  0  0  0  0  0  0  0  0  0  0  0
   -6.1541    8.3368   -0.3209 H   0  0  0  0  0  0  0  0  0  0  0  0
   11.8406    1.3137    0.0392 O   0  0  0  0  0  0  0  0  0  0  0  0
   12.3067    0.8320    0.7305 H   0  0  0  0  0  0  0  0  0  0  0  0
   10.9035    1.2694    0.2475 H   0  0  0  0  0  0  0  0  0  0  0  0
   -9.9240   -2.8403   -2.0110 O   0  0  0  0  0  0  0  0  0  0  0  0
   -9.6599   -3.5770   -2.5712 H   0  0  0  0  0  0  0  0  0  0  0  0
   -9.1686   -2.6218   -1.4569 H   0  0  0  0  0  0  0  0  0  0  0  0
    3.9113   14.0622   -3.8864 O   0  0  0  0  0  0  0  0  0  0  0  0
    4.2213   13.2014   -4.1845 H   0  0  0  0  0  0  0  0  0  0  0  0
    3.6212   13.9550   -2.9753 H   0  0  0  0  0  0  0  0  0  0  0  0
    7.0235   -5.9316   -3.8903 O   0  0  0  0  0  0  0  0  0  0  0  0
    7.7543   -5.3412   -3.6827 H   0  0  0  0  0  0  0  0  0  0  0  0
    6.2223   -5.5156   -3.5602 H   0  0  0  0  0  0  0  0  0  0  0  0
   -7.6236    5.5197   -5.0476 O   0  0  0  0  0  0  0  0  0  0  0  0
   -6.7889    5.5754   -4.5727 H   0  0  0  0  0  0  0  0  0  0  0  0
   -8.3146    5.4033   -4.3878 H   0  0  0  0  0  0  0  0  0  0  0  0
   10.9673    8.0526   -2.7301 O   0  0  0  0  0  0  0  0  0  0  0  0
   10.5803    7.2797   -3.1510 H   0  0  0  0  0  0  0  0  0  0  0  0
   10.7875    8.8023   -3.3065 H   0  0  0  0  0  0  0  0  0  0  0  0
   -3.3538   -5.5987   -7.6713 O   0  0  0  0  0  0  0  0  0  0  0  0
   -3.2752   -5.7544   -8.6179 H   0  0  0  0  0  0  0  0  0  0  0  0
   -2.5101   -5.2467   -7.3729 H   0  0  0  0  0  0  0  0  0  0  0  0
   -1.4926   12.9796   -5.3104 O   0  0  0  0  0  0  0  0  0  0  0  0
   -1.3858   12.5742   -6.1767 H   0  0  0  0  0  0  0  0  0  0  0  0
   -0.6089   13.1328   -4.9620 H   0  0  0  0  0  0  0  0  0  0  0  0
    9.2299   -2.0040   -7.1210 O   0  0  0  0  0  0  0  0  0  0  0  0
   10.1362   -1.8323   -6.8463 H   0  0  0  0  0  0  0  0  0  0  0  0
    8.6556   -1.6818   -6.4203 H   0  0  0  0  0  0  0  0  0  0  0  0
   -6.9584    0.2901   -5.2626 O   0  0  0  0  0  0  0  0  0  0  0  0
   -6.8696   -0.6138   -4.9458 H   0  0  0  0  0  0  0  0  0  0  0  0
   -6.7266    0.8697   -4.5311 H   0  0  0  0  0  0  0  0  0  0  0  0
    7.2427    7.6160   -6.4541 O   0  0  0  0  0  0  0  0  0  0  0  0
    6.6307    7.7389   -5.7228 H   0  0  0  0  0  0  0  0  0  0  0  0
    6.8010    7.9377   -7.2469 H   0  0  0  0  0  0  0  0  0  0  0  0
    5.1092   -4.9523   -9.1015 O   0  0  0  0  0  0  0  0  0  0  0  0
    5.5521   -4.6904   -8.2890 H   0  0  0  0  0  0  0  0  0  0  0  0
    4.5100   -4.2368   -9.3355 H   0  0  0  0  0  0  0  0  0  0  0  0
   -3.2919    3.1897   -7.8135 O   0  0  0  0  0  0  0  0  0  0  0  0
   -2.9713    3.1229   -6.9096 H   0  0  0  0  0  0  0  0  0  0  0  0
   -4.2436    3.3293   -7.7646 H   0  0  0  0  0  0  0  0  0  0  0  0
    6.7091    2.7195   -9.2278 O   0  0  0  0  0  0  0  0  0  0  0  0
    6.8531    1.9911   -8.6160 H   0  0  0  0  0  0  0  0  0  0  0  0
    7.0443    3.5147   -8.8025 H   0  0  0  0  0  0  0  0  0  0  0  0
    0.3929   -2.1329  -10.4113 O   0  0  0  0  0  0  0  0  0  0  0  0
    0.0606   -1.9285   -9.5323 H   0  0  0  0  0  0  0  0  0  0  0  0
   -0.1450   -2.8537  -10.7551 H   0  0  0  0  0  0  0  0  0  0  0  0
    4.9176    7.1362   14.2965 O   0  0  0  0  0  0  0  0  0  0  0  0
    5.6872    6.8307   13.8063 H   0  0  0  0  0  0  0  0  0  0  0  0
    4.1648    6.6286   13.9784 H   0  0  0  0  0  0  0  0  0  0  0  0
   -1.3532   -0.9896   13.8074 O   0  0  0  0  0  0  0  0  0  0  0  0
   -1.1752   -1.9321   13.7249 H   0  0  0  0  0  0  0  0  0  0  0  0
   -1.6978   -0.6921   12.9598 H   0  0  0  0  0  0  0  0  0  0  0  0
    0.9583   11.0186   15.4305 O   0  0  0  0  0  0  0  0  0  0  0  0
    1.5323   10.3375   15.0665 H   0  0  0  0  0  0  0  0  0  0  0  0
    1.3570   11.8662   15.2087 H   0  0  0  0  0  0  0  0  0  0  0  0
    5.2769   -6.5082   14.1819 O   0  0  0  0  0  0  0  0  0  0  0  0
    5.5731   -6.8404   13.3285 H   0  0  0  0  0  0  0  0  0  0  0  0
    5.0961   -5.5698   14.0690 H   0  0  0  0  0  0  0  0  0  0  0  0
   -3.5996    2.5899   10.0447 O   0  0  0  0  0  0  0  0  0  0  0  0
   -3.2087    3.2457    9.4601 H   0  0  0  0  0  0  0  0  0  0  0  0
   -4.1153    3.0693   10.7019 H   0  0  0  0  0  0  0  0  0  0  0  0
   13.0656    9.9702   12.1351 O   0  0  0  0  0  0  0  0  0  0  0  0
   12.7659    9.5562   11.3198 H   0  0  0  0  0  0  0  0  0  0  0  0
   12.4497   10.6843   12.3284 H   0  0  0  0  0  0  0  0  0  0  0  0
   -0.1593   -6.5724   13.1213 O   0  0  0  0  0  0  0  0  0  0  0  0
    0.6071   -6.8746   13.6183 H   0  0  0  0  0  0  0  0  0  0  0  0
    0.1529   -6.4278   12.2140 H   0  0  0  0  0  0  0  0  0  0  0  0
   -1.7802   12.3972   10.9447 O   0  0  0  0  0  0  0  0  0  0  0  0
   -1.3483   11.6091   11.2885 H   0  0  0  0  0  0  0  0  0  0  0  0
   -1.1888   13.1370   11.1173 H   0  0  0  0  0  0  0  0  0  0  0  0
   11.9851   -3.1415    8.6049 O   0  0  0  0  0  0  0  0  0  0  0  0
   11.3636   -3.4695    7.9477 H   0  0  0  0  0  0  0  0  0  0  0  0
   11.5115   -3.0953    9.4414 H   0  0  0  0  0  0  0  0  0  0  0  0
   -8.2763   -0.5313   10.7353 O   0  0  0  0  0  0  0  0  0  0  0  0
   -8.3527   -1.4837   10.8500 H   0  0  0  0  0  0  0  0  0  0  0  0
   -7.3467   -0.3103   10.8495 H   0  0  0  0  0  0  0  0  0  0  0  0
    8.9200   13.1172   10.2930 O   0  0  0  0  0  0  0  0  0  0  0  0
    8.8572   12.2799    9.8232 H   0  0  0  0  0  0  0  0  0  0  0  0
    8.8911   13.8121    9.6277 H   0  0  0  0  0  0  0  0  0  0  0  0
    6.5052   -7.8980    8.8066 O   0  0  0  0  0  0  0  0  0  0  0  0
    7.1771   -8.1289    8.1575 H   0  0  0  0  0  0  0  0  0  0  0  0
    5.6696   -7.8349    8.3340 H   0  0  0  0  0  0  0  0  0  0  0  0
  -12.0782    8.3752    7.3044 O   0  0  0  0  0  0  0  0  0  0  0  0
  -11.3631    7.7699    7.5244 H   0  0  0  0  0  0  0  0  0  0  0  0
  -11.9127    8.6896    6.4098 H   0  0  0  0  0  0  0  0  0  0  0  0
   12.7552    3.8868    8.5181 O   0  0  0  0  0  0  0  0  0  0  0  0
   13.1847    4.6980    8.2267 H   0  0  0  0  0  0  0  0  0  0  0  0
   11.8482    3.9225    8.1998 H   0  0  0  0  0  0  0  0  0  0  0  0
   -6.1235   -8.9792    9.3131 O   0  0  0  0  0  0  0  0  0  0  0  0
   -5.1896   -9.1588    9.1662 H   0  0  0  0  0  0  0  0  0  0  0  0
   -6.2858   -8.0813    9.0072 H   0  0  0  0  0  0  0  0  0  0  0  0
    2.5019   16.1261    5.0494 O   0  0  0  0  0  0  0  0  0  0  0  0
    1.9423   15.3621    5.2201 H   0  0  0  0  0  0  0  0  0  0  0  0
    3.3484   15.7890    4.7395 H   0  0  0  0  0  0  0  0  0  0  0  0
   10.2704   -7.0044    4.7803 O   0  0  0  0  0  0  0  0  0  0  0  0
   10.1898   -6.1590    4.3284 H   0  0  0  0  0  0  0  0  0  0  0  0
   10.0286   -7.6874    4.1467 H   0  0  0  0  0  0  0  0  0  0  0  0
  -10.4090    1.4081    5.2142 O   0  0  0  0  0  0  0  0  0  0  0  0
  -10.9225    0.6834    5.5849 H   0  0  0  0  0  0  0  0  0  0  0  0
  -10.8993    1.7404    4.4556 H   0  0  0  0  0  0  0  0  0  0  0  0
   11.3783   13.5977    5.5174 O   0  0  0  0  0  0  0  0  0  0  0  0
   11.3286   12.6648    5.7483 H   0  0  0  0  0  0  0  0  0  0  0  0
   10.8672   13.7137    4.7103 H   0  0  0  0  0  0  0  0  0  0  0  0
    2.8376  -13.9698    1.4029 O   0  0  0  0  0  0  0  0  0  0  0  0
    3.3542  -13.4907    2.0586 H   0  0  0  0  0  0  0  0  0  0  0  0
    2.5707  -13.3304    0.7352 H   0  0  0  0  0  0  0  0  0  0  0  0
   -8.5025   11.7964    2.0926 O   0  0  0  0  0  0  0  0  0  0  0  0
   -8.0178   11.3414    2.7884 H   0  0  0  0  0  0  0  0  0  0  0  0
   -7.8534   12.2639    1.5574 H   0  0  0  0  0  0  0  0  0  0  0  0
   14.5225   -0.0236    4.8110 O   0  0  0  0  0  0  0  0  0  0  0  0
   14.2500    0.6562    5.4355 H   0  0  0  0  0  0  0  0  0  0  0  0
   14.4249   -0.8697    5.2592 H   0  0  0  0  0  0  0  0  0  0  0  0
  -13.2479   -1.7425    2.2177 O   0  0  0  0  0  0  0  0  0  0  0  0
  -12.3368   -1.9367    1.9768 H   0  0  0  0  0  0  0  0  0  0  0  0
  -13.7285   -1.6005    1.3960 H   0  0  0  0  0  0  0  0  0  0  0  0
    7.1484   14.6012    1.0055 O   0  0  0  0  0  0  0  0  0  0  0  0
    7.1920   14.0158    1.7677 H   0  0  0  0  0  0  0  0  0  0  0  0
    6.2171   14.7764    0.8384 H   0  0  0  0  0  0  0  0  0  0  0  0
    9.0180   -9.3104   -0.4263 O   0  0  0  0  0  0  0  0  0  0  0  0
    9.0574   -8.3516   -0.3580 H   0  0  0  0  0  0  0  0  0  0  0  0
    8.9646   -9.5217   -1.3638 H   0  0  0  0  0  0  0  0  0  0  0  0
  -10.8706    7.7242   -1.0250 O   0  0  0  0  0  0  0  0  0  0  0  0
  -10.6479    6.8786   -0.6235 H   0  0  0  0  0  0  0  0  0  0  0  0
  -10.8223    8.3868   -0.3284 H   0  0  0  0  0  0  0  0  0  0  0  0
   14.9003    8.7196    1.2541 O   0  0  0  0  0  0  0  0  0  0  0  0
   14.5238    9.0424    2.0789 H   0  0  0  0  0  0  0  0  0  0  0  0
   14.1633    8.5257    0.6667 H   0  0  0  0  0  0  0  0  0  0  0  0
   -2.0319   -8.9152   -3.3123 O   0  0  0  0  0  0  0  0  0  0  0  0
   -1.1481   -8.9632   -2.9367 H   0  0  0  0  0  0  0  0  0  0  0  0
   -1.9343   -8.6028   -4.2179 H   0  0  0  0  0  0  0  0  0  0  0  0
   -3.7364   12.6035   -0.6532 O   0  0  0  0  0  0  0  0  0  0  0  0
   -3.1692   11.8879   -0.9555 H   0  0  0  0  0  0  0  0  0  0  0  0
   -4.2136   12.9254   -1.4248 H   0  0  0  0  0  0  0  0  0  0  0  0
   13.8828   -1.0190   -4.1553 O   0  0  0  0  0  0  0  0  0  0  0  0
   14.2488   -0.1874   -3.8375 H   0  0  0  0  0  0  0  0  0  0  0  0
   13.5100   -1.4726   -3.3929 H   0  0  0  0  0  0  0  0  0  0  0  0
  -11.8218   -0.8792   -2.8849 O   0  0  0  0  0  0  0  0  0  0  0  0
  -11.2454   -1.5712   -2.5231 H   0  0  0  0  0  0  0  0  0  0  0  0
  -11.4198   -0.6081   -3.7161 H   0  0  0  0  0  0  0  0  0  0  0  0
    9.1629   13.8534   -3.9031 O   0  0  0  0  0  0  0  0  0  0  0  0
    8.8219   13.0135   -3.5811 H   0  0  0  0  0  0  0  0  0  0  0  0
    8.6665   14.5454   -3.4545 H   0  0  0  0  0  0  0  0  0  0  0  0
    4.6574   -9.7429   -6.6582 O   0  0  0  0  0  0  0  0  0  0  0  0
    5.3817   -9.1934   -6.9744 H   0  0  0  0  0  0  0  0  0  0  0  0
    4.2523   -9.2755   -5.9213 H   0  0  0  0  0  0  0  0  0  0  0  0
   -7.4763   10.8065   -4.2465 O   0  0  0  0  0  0  0  0  0  0  0  0
   -6.7465   10.2562   -4.5474 H   0  0  0  0  0  0  0  0  0  0  0  0
   -8.2120   10.2162   -4.0541 H   0  0  0  0  0  0  0  0  0  0  0  0
   14.9986    4.6139   -3.0287 O   0  0  0  0  0  0  0  0  0  0  0  0
   15.0590    5.5607   -2.8660 H   0  0  0  0  0  0  0  0  0  0  0  0
   14.1432    4.3254   -2.6962 H   0  0  0  0  0  0  0  0  0  0  0  0
   -8.3956   -4.6620   -7.0271 O   0  0  0  0  0  0  0  0  0  0  0  0
   -7.7428   -5.1362   -6.5030 H   0  0  0  0  0  0  0  0  0  0  0  0
   -7.9150   -4.2097   -7.7278 H   0  0  0  0  0  0  0  0  0  0  0  0
    2.1484   13.6645   -9.2432 O   0  0  0  0  0  0  0  0  0  0  0  0
    2.3193   12.7178   -9.2208 H   0  0  0  0  0  0  0  0  0  0  0  0
    2.4865   14.0316   -8.4201 H   0  0  0  0  0  0  0  0  0  0  0  0
   10.0957   -6.9779   -8.5726 O   0  0  0  0  0  0  0  0  0  0  0  0
    9.7556   -6.7301   -7.7074 H   0  0  0  0  0  0  0  0  0  0  0  0
    9.7928   -6.3082   -9.1940 H   0  0  0  0  0  0  0  0  0  0  0  0
   -8.7916    2.4260   -9.6795 O   0  0  0  0  0  0  0  0  0  0  0  0
   -8.4586    1.5431   -9.4897 H   0  0  0  0  0  0  0  0  0  0  0  0
   -8.7650    2.9188   -8.8533 H   0  0  0  0  0  0  0  0  0  0  0  0
   12.6450    6.5457   -7.6755 O   0  0  0  0  0  0  0  0  0  0  0  0
   12.9557    5.8021   -7.1492 H   0  0  0  0  0  0  0  0  0  0  0  0
   11.6840    6.5403   -7.6282 H   0  0  0  0  0  0  0  0  0  0  0  0
    0.7671   -7.4573  -10.1318 O   0  0  0  0  0  0  0  0  0  0  0  0
    1.3068   -7.7749   -9.4013 H   0  0  0  0  0  0  0  0  0  0  0  0
    1.3614   -7.3036  -10.8732 H   0  0  0  0  0  0  0  0  0  0  0  0
   -1.8262    8.3253   -9.7381 O   0  0  0  0  0  0  0  0  0  0  0  0
   -1.9311    7.4272   -9.4094 H   0  0  0  0  0  0  0  0  0  0  0  0
   -2.4475    8.8759   -9.2512 H   0  0  0  0  0  0  0  0  0  0  0  0
    7.5897   -1.6742  -12.4630 O   0  0  0  0  0  0  0  0  0  0  0  0
    7.8985   -1.9711  -11.6012 H   0  0  0  0  0  0  0  0  0  0  0  0
    7.2858   -0.7677  -12.3549 H   0  0  0  0  0  0  0  0  0  0  0  0
   -4.6710   -1.3841  -10.0055 O   0  0  0  0  0  0  0  0  0  0  0  0
   -4.3676   -0.5999  -10.4736 H   0  0  0  0  0  0  0  0  0  0  0  0
   -4.5664   -1.2071   -9.0655 H   0  0  0  0  0  0  0  0  0  0  0  0
    3.5536    7.2198  -10.5621 O   0  0  0  0  0  0  0  0  0  0  0  0
    3.8019    6.2967  -10.6716 H   0  0  0  0  0  0  0  0  0  0  0  0
    2.6471    7.3057  -10.8743 H   0  0  0  0  0  0  0  0  0  0  0  0
    3.5580   -4.7455  -14.2364 O   0  0  0  0  0  0  0  0  0  0  0  0
    4.4626   -4.8799  -13.9363 H   0  0  0  0  0  0  0  0  0  0  0  0
    3.2362   -3.9494  -13.8022 H   0  0  0  0  0  0  0  0  0  0  0  0
    0.4908    3.2296  -11.9689 O   0  0  0  0  0  0  0  0  0  0  0  0
    0.8170    2.3338  -11.8388 H   0  0  0  0  0  0  0  0  0  0  0  0
   -0.2053    3.3730  -11.3204 H   0  0  0  0  0  0  0  0  0  0  0  0
  1  2  4  0  0  0  0
  2  3  2  0  0  0  0
  3  4  4  0  0  0  0
  4  5  4  0  0  0  0
  1  6  4  0  0  0  0
  5  6  4  0  0  0  0
  5  7  1  0  0  0  0
  7  8  2  0  0  0  0
  7  9  4  0  0  0  0
  4 10  4  0  0  0  0
  1 11  1  0  0  0  0
  2 12  1  0  0  0  0
  3 13  1  0  0  0  0
  6 14  1  0  0  0  0
  8 15  1  0  0  0  0
 10 15  1  0  0  0  0
 16 17  4  0  0  0  0
 17 18  2  0  0  0  0
 18 19  1  0  0  0  0
 19 20  1  0  0  0  0
 16 21  4  0  0  0  0
 20 21  4  0  0  0  0
 20 22  1  0  0  0  0
 15 23  1  0  0  0  0
 22 23  4  0  0  0  0
 22 24  4  0  0  0  0
 15 25  1  0  0  0  0
 19 25  4  0  0  0  0
 16 26  1  0  0  0  0
 17 27  1  0  0  0  0
 18 28  1  0  0  0  0
 21 29  1  0  0  0  0
 30 31  4  0  0  0  0
 31 32  2  0  0  0  0
 32 33  4  0  0  0  0
 33 34  4  0  0  0  0
 30 35  4  0  0  0  0
 34 35  4  0  0  0  0
 34 36  1  0  0  0  0
 15 37  1  0  0  0  0
 36 37  2  0  0  0  0
 36 38  4  0  0  0  0
 15 39  1  0  0  0  0
 33 39  4  0  0  0  0
 30 40  1  0  0  0  0
 31 41  1  0  0  0  0
 32 42  1  0  0  0  0
 35 43  1  0  0  0  0
 44 45  1  0  0  0  0
 44 46  1  0  0  0  0
 47 48  1  0  0  0  0
 47 49  1  0  0  0  0
 50 51  1  0  0  0  0
 50 52  1  0  0  0  0
 53 54  1  0  0  0  0
 53 55  1  0  0  0  0
 56 57  1  0  0  0  0
 56 58  1  0  0  0  0
 59 60  1  0  0  0  0
 59 61  1  0  0  0  0
 62 63  1  0  0  0  0
 62 64  1  0  0  0  0
 65 66  1  0  0  0  0
 65 67  1  0  0  0  0
 68 69  1  0  0  0  0
 68 70  1  0  0  0  0
 71 72  1  0  0  0  0
 71 73  1  0  0  0  0
 74 75  1  0  0  0  0
 74 76  1  0  0  0  0
 77 78  1  0  0  0  0
 77 79  1  0  0  0  0
 80 81  1  0  0  0  0
 80 82  1  0  0  0  0
 83 84  1  0  0  0  0
 83 85  1  0  0  0  0
 86 87  1  0  0  0  0
 86 88  1  0  0  0  0
 89 90  1  0  0  0  0
 89 91  1  0  0  0  0
 92 93  1  0  0  0  0
 92 94  1  0  0  0  0
 95 96  1  0  0  0  0
 95 97  1  0  0  0  0
 98 99  1  0  0  0  0
 98100  1  0  0  0  0
101102  1  0  0  0  0
101103  1  0  0  0  0
104105  1  0  0  0  0
104106  1  0  0  0  0
107108  1  0  0  0  0
107109  1  0  0  0  0
110111  1  0  0  0  0
110112  1  0  0  0  0
113114  1  0  0  0  0
113115  1  0  0  0  0
116117  1  0  0  0  0
116118  1  0  0  0  0
119120  1  0  0  0  0
119121  1  0  0  0  0
122123  1  0  0  0  0
122124  1  0  0  0  0
125126  1  0  0  0  0
125127  1  0  0  0  0
128129  1  0  0  0  0
128130  1  0  0  0  0
131132  1  0  0  0  0
131133  1  0  0  0  0
134135  1  0  0  0  0
134136  1  0  0  0  0
137138  1  0  0  0  0
137139  1  0  0  0  0
140141  1  0  0  0  0
140142  1  0  0  0  0
143144  1  0  0  0  0
143145  1  0  0  0  0
146147  1  0  0  0  0
146148  1  0  0  0  0
149150  1  0  0  0  0
149151  1  0  0  0  0
152153  1  0  0  0  0
152154  1  0  0  0  0
155156  1  0  0  0  0
155157  1  0  0  0  0
158159  1  0  0  0  0
158160  1  0  0  0  0
161162  1  0  0  0  0
161163  1  0  0  0  0
164165  1  0  0  0  0
164166  1  0  0  0  0
167168  1  0  0  0  0
167169  1  0  0  0  0
170171  1  0  0  0  0
170172  1  0  0  0  0
173174  1  0  0  0  0
173175  1  0  0  0  0
176177  1  0  0  0  0
176178  1  0  0  0  0
179180  1  0  0  0  0
179181  1  0  0  0  0
182183  1  0  0  0  0
182184  1  0  0  0  0
185186  1  0  0  0  0
185187  1  0  0  0  0
188189  1  0  0  0  0
188190  1  0  0  0  0
191192  1  0  0  0  0
191193  1  0  0  0  0
194195  1  0  0  0  0
194196  1  0  0  0  0
197198  1  0  0  0  0
197199  1  0  0  0  0
200201  1  0  0  0  0
200202  1  0  0  0  0
203204  1  0  0  0  0
203205  1  0  0  0  0
206207  1  0  0  0  0
206208  1  0  0  0  0
209210  1  0  0  0  0
209211  1  0  0  0  0
212213  1  0  0  0  0
212214  1  0  0  0  0
215216  1  0  0  0  0
215217  1  0  0  0  0
218219  1  0  0  0  0
218220  1  0  0  0  0
221222  1  0  0  0  0
221223  1  0  0  0  0
224225  1  0  0  0  0
224226  1  0  0  0  0
227228  1  0  0  0  0
227229  1  0  0  0  0
230231  1  0  0  0  0
230232  1  0  0  0  0
233234  1  0  0  0  0
233235  1  0  0  0  0
236237  1  0  0  0  0
236238  1  0  0  0  0
239240  1  0  0  0  0
239241  1  0  0  0  0
242243  1  0  0  0  0
242244  1  0  0  0  0
245246  1  0  0  0  0
245247  1  0  0  0  0
248249  1  0  0  0  0
248250  1  0  0  0  0
251252  1  0  0  0  0
251253  1  0  0  0  0
254255  1  0  0  0  0
254256  1  0  0  0  0
257258  1  0  0  0  0
257259  1  0  0  0  0
260261  1  0  0  0  0
260262  1  0  0  0  0
263264  1  0  0  0  0
263265  1  0  0  0  0
266267  1  0  0  0  0
266268  1  0  0  0  0
269270  1  0  0  0  0
269271  1  0  0  0  0
272273  1  0  0  0  0
272274  1  0  0  0  0
275276  1  0  0  0  0
275277  1  0  0  0  0
278279  1  0  0  0  0
278280  1  0  0  0  0
281282  1  0  0  0  0
281283  1  0  0  0  0
284285  1  0  0  0  0
284286  1  0  0  0  0
287288  1  0  0  0  0
287289  1  0  0  0  0
290291  1  0  0  0  0
290292  1  0  0  0  0
293294  1  0  0  0  0
293295  1  0  0  0  0
296297  1  0  0  0  0
296298  1  0  0  0  0
299300  1  0  0  0  0
299301  1  0  0  0  0
302303  1  0  0  0  0
302304  1  0  0  0  0
305306  1  0  0  0  0
305307  1  0  0  0  0
308309  1  0  0  0  0
308310  1  0  0  0  0
311312  1  0  0  0  0
311313  1  0  0  0  0
314315  1  0  0  0  0
314316  1  0  0  0  0
317318  1  0  0  0  0
317319  1  0  0  0  0
320321  1  0  0  0  0
320322  1  0  0  0  0
323324  1  0  0  0  0
323325  1  0  0  0  0
326327  1  0  0  0  0
326328  1  0  0  0  0
329330  1  0  0  0  0
329331  1  0  0  0  0
332333  1  0  0  0  0
332334  1  0  0  0  0
335336  1  0  0  0  0
335337  1  0  0  0  0
338339  1  0  0  0  0
338340  1  0  0  0  0
341342  1  0  0  0  0
341343  1  0  0  0  0
344345  1  0  0  0  0
344346  1  0  0  0  0
347348  1  0  0  0  0
347349  1  0  0  0  0
350351  1  0  0  0  0
350352  1  0  0  0  0
353354  1  0  0  0  0
353355  1  0  0  0  0
356357  1  0  0  0  0
356358  1  0  0  0  0
359360  1  0  0  0  0
359361  1  0  0  0  0
362363  1  0  0  0  0
362364  1  0  0  0  0
365366  1  0  0  0  0
365367  1  0  0  0  0
M  CHG  1   1  -4
M  END
