118
 xtb: 6.6.0 (conda-forge)
Fe           0.10829764591365       -0.72010911104760        0.22185804292778
O           -1.07304783329546       -1.43545914281274        2.25771268110300
O            1.69428426540199        0.63890697659354        1.53666391796025
O            1.91832283191564       -0.52725514613485       -1.40949105875904
O           -1.16787452203296       -0.03624787411308       -1.83897120511829
O           -1.04991020814300        1.35109653248498        0.89568989432317
O            1.21421998284248       -2.79683158202529        1.00810967483682
H           -2.00283951986085        1.39714844309525        1.04334088557644
H           -0.84715658309580        1.98523923508971        0.19036298349120
H            1.44269920068610       -2.65277285332622        1.93728151018290
H            2.05133734854404       -3.01916165033806        0.56552486325992
H           -0.68749589282952       -0.87290830503423        2.94200241401164
H           -2.02421527854871       -1.28708093637880        2.26816536368949
H            2.69000919640120        0.05122106218900       -1.25516925165143
H            2.24671222462684       -1.25340605021102       -1.94217271473339
H            1.81131786899402        1.50350120885605        1.10931184777635
H            2.56847329169510        0.20076490132218        1.51453975473173
H           -2.12291976484062        0.05200516868832       -1.74343744115096
H           -1.01551375650148       -0.84062523990936       -2.34430887385299
O           -3.78167118665820        1.41787163625993        1.43236691410948
O            3.68503306698357       -3.05474118468914       -0.15745685424735
O           -3.91287367025261       -0.05917750132228       -1.82363732506376
O           -0.93698643694962       -2.69714548872290       -0.89834419955162
O           -5.45154840009869        1.55025582731565       -0.54152437072558
O           -3.59486023942211       -2.31733209688551       -0.38442100518592
O            2.29580634761037       -1.87762406331538        3.38253320826881
O            3.99411016346209       -0.75303005341873        1.22922897431909
O            2.14425595547701        2.80312009373204       -0.02597661778634
O           -0.10245540060943        2.46926036860419       -1.48993034509767
O            4.12836895369530        1.10790328771849       -0.70630555234052
O            3.30502563759288       -2.56002376590114       -2.79884635590035
H           -3.73870472661503       -1.50321426465512       -0.92500208547318
H           -4.14007923142959       -3.01156515422992       -0.77848861834641
H           -3.83051531690524        0.47259225871984        1.67095510211624
H           -2.27718107870029       10.71407100841664        5.08847458650859
H           -6.19140590583155        1.01807879176978       -0.26868300983757
H           -4.41108960203455        1.52515092011000        0.65758449966402
H           -0.49272930730259        3.07942776876715       -2.12770483032694
H           -0.32228146846707        1.56825803075668       -1.77425194233958
H           -4.26392594292052       -0.09392261743442       -2.72225334760751
H           -4.48943640370436        0.60429844777975       -1.33122795924084
H           -1.87113760971381       -2.62827946550814       -0.65662161661392
H           -0.53878977332284       -3.35702911731522       -0.33025178300934
H            4.06620205326366       -2.24199504554235       -3.33026650549396
H            3.08165980407570       -3.42671488049825       -3.13500417763719
H            4.96654248948274        1.58334071109570       -0.84248894780946
H            3.47316187955775        1.79706554881063       -0.45195873470782
H            2.22818488105311        3.75734738998260        0.13446579864814
H            1.37607381786019        2.67627680269691       -0.60703058677681
H            4.17934580046622       -0.07607675353052        0.54476903174210
H            3.68395894142978       -1.53243485607722        0.72231486199888
H            1.66071315500844       -1.20491215875675        3.66989521979056
H            2.95270448772508       -1.41437258909239        2.84157787977228
H            4.62219207490294       -3.20910183136459        0.01643569882731
H            3.59937093855165       -2.83705906121109       -1.11422914049372
O            0.49388511272940        0.20365732008825        3.86444861755535
H            0.28130370186598        0.97073484374257        4.39193988566755
H            0.85829069604052        0.52557269246882        3.00815571108219
O           -2.06569587624530       -3.44168556328042        6.97009194435950
H           -1.14808746769606       -3.46846306933781        6.67227733839826
H           -2.37796884632288       -2.54716110771193        6.83853067212324
O            0.30160466414137        5.80986591123421        4.98529680098737
H           -0.49297062900802        5.48985204726506        4.53235479900992
H            0.10347980859053        6.69786737559471        5.28937860894519
O            3.47092380313114       -3.27173755004103        5.42862832855744
H            3.24610154501895       -4.18854171170794        5.22775989175724
H            3.04349083733468       -2.74328150879571        4.71789436136228
O           -4.63980187684616        2.81234569233168        3.61504379249071
H           -4.34731128600489        2.35837994434448        2.78792673235972
H           -4.04364944547017        2.49630489367178        4.30030298870768
O            5.25673448265252        2.94198411266720        4.49395348835943
H            5.27579672871928        2.03238860749888        4.82304948042924
H            4.35021412135233        3.25488538508923        4.62733594047802
O           -1.99693625123516       -6.65442595040119        2.71268812967466
H           -1.11717618869312       -6.42432405135303        3.01696945781516
H           -2.56659335752602       -5.90722515668027        2.90772255723823
O           -2.75096606808696        7.31474367256589        0.66667524259311
H           -3.22066889266721        6.51554949866128        0.92961882167614
H           -2.89261373188475        7.96755928280609        1.35556515138566
O            6.21480729394600       -2.45511757872989        1.05549807045797
H            6.57907792360635       -2.75127238758824        1.88960468298024
H            5.59962003890859       -1.72331585572355        1.26511400392182
O           -3.85710700482598       -1.26245413994373        2.06427289832139
H           -3.78019370646963       -1.69566290318289        1.17650362229668
H           -4.54782615583458       -1.71251641434804        2.54196227153814
O            2.43419009614337        5.59345579464989        0.40167213437044
H            3.02545304818683        5.91137039180814        1.10103613920623
H            1.63272402822621        6.12577279466171        0.46152056790638
O            3.01490631943521       -5.30732623459933       -3.39825087031728
H            3.82162222569081       -5.78760236862721       -3.51632055960029
H            2.39526602267276       -5.82812062498872       -2.91431579078301
O           -6.64783338973252        3.61455622919574       -1.45032432262520
H           -6.13368267378261        2.79543451460559       -1.11356086130215
H           -6.80874407034308        4.14376556487360       -0.66827175114190
O            6.51903575302156        2.63219313913732       -0.76963591484409
H            7.00182039178168        2.59860889345397        0.08392953711899
H            6.56366261622866        3.54661052316870       -1.06203496893875
O           -4.81225857275238       -4.51589899009380       -1.62898314821782
H           -4.61520377918831       -5.35724405052852       -1.25485333257659
H           -4.77064968730401       -4.55554261861874       -2.57297827047993
O           -1.38345726832065        4.33626466531418       -3.20723373770580
H           -1.13370459825909        5.26457246850007       -3.15226078588272
H           -2.32629586379644        4.28416299618136       -3.08203188924582
O            5.56391424823876       -1.65986125916851       -4.20919254380540
H            6.39761848405489       -1.59883383922281       -3.72336104469885
H            5.49500140454003       -0.82563096807849       -4.71707214320218
O           -4.86355867280487       -0.13679917617428       -4.53401696388003
H           -4.53358215001427       -0.70077989393754       -5.24559421130313
H           -5.15911280106392        0.68328124652960       -4.93238503635408
O            3.66013474771800        4.03392292474450       -4.99272040185710
H            3.23890640711608        3.24252897977590       -4.83450105384947
H            3.37516285263344        4.67120100638947       -4.26481851278792
O           -1.53538187344850       -4.10744352332569       -6.24476749009527
H           -1.11433559083113       -4.23460423792285       -5.41249221462523
H           -1.15538234435749       -3.52295975561960       -6.78408251699907
O           -0.56815405117872        1.27276420055726       -7.42262147944659
H           -0.45741709498703        1.02647123080780       -6.46645861326202
H           -0.49356065444989        2.10866994382041       -7.57317185075623
