 xtb: 6.6.0 (conda-forge)
          05102418013D

118 77  0     0  0            999 V2000
    0.1174   -0.7173    0.2159 Fe  0  0  0  0  0  0  0  0  0  0  0  0
   -1.0701   -1.4357    2.2529 O   0  0  0  0  0  0  0  0  0  0  0  0
    1.6951    0.6392    1.5399 O   0  0  0  0  0  0  0  0  0  0  0  0
    1.9266   -0.5144   -1.4072 O   0  0  0  0  0  0  0  0  0  0  0  0
   -1.1550   -0.0323   -1.8459 O   0  0  0  0  0  0  0  0  0  0  0  0
   -1.0459    1.3525    0.8912 O   0  0  0  0  0  0  0  0  0  0  0  0
    1.2180   -2.7968    1.0025 O   0  0  0  0  0  0  0  0  0  0  0  0
   -2.0018    1.3977    1.0422 H   0  0  0  0  0  0  0  0  0  0  0  0
   -0.8458    1.9857    0.1895 H   0  0  0  0  0  0  0  0  0  0  0  0
    1.4436   -2.6532    1.9359 H   0  0  0  0  0  0  0  0  0  0  0  0
    2.0523   -3.0188    0.5639 H   0  0  0  0  0  0  0  0  0  0  0  0
   -0.6868   -0.8734    2.9412 H   0  0  0  0  0  0  0  0  0  0  0  0
   -2.0234   -1.2870    2.2668 H   0  0  0  0  0  0  0  0  0  0  0  0
    2.6921    0.0541   -1.2535 H   0  0  0  0  0  0  0  0  0  0  0  0
    2.2489   -1.2494   -1.9426 H   0  0  0  0  0  0  0  0  0  0  0  0
    1.8116    1.5039    1.1107 H   0  0  0  0  0  0  0  0  0  0  0  0
    2.5688    0.2010    1.5155 H   0  0  0  0  0  0  0  0  0  0  0  0
   -2.1197    0.0530   -1.7454 H   0  0  0  0  0  0  0  0  0  0  0  0
   -1.0120   -0.8391   -2.3468 H   0  0  0  0  0  0  0  0  0  0  0  0
   -3.7773    1.4203    1.4287 O   0  0  0  0  0  0  0  0  0  0  0  0
    3.6886   -3.0466   -0.1642 O   0  0  0  0  0  0  0  0  0  0  0  0
   -3.9007   -0.0511   -1.8268 O   0  0  0  0  0  0  0  0  0  0  0  0
   -0.9299   -2.6946   -0.9063 O   0  0  0  0  0  0  0  0  0  0  0  0
   -5.4451    1.5553   -0.5465 O   0  0  0  0  0  0  0  0  0  0  0  0
   -3.5886   -2.3120   -0.3928 O   0  0  0  0  0  0  0  0  0  0  0  0
    2.2970   -1.8812    3.3798 O   0  0  0  0  0  0  0  0  0  0  0  0
    3.9962   -0.7518    1.2340 O   0  0  0  0  0  0  0  0  0  0  0  0
    2.1488    2.8081   -0.0157 O   0  0  0  0  0  0  0  0  0  0  0  0
   -0.0902    2.4730   -1.4912 O   0  0  0  0  0  0  0  0  0  0  0  0
    4.1373    1.1169   -0.6928 O   0  0  0  0  0  0  0  0  0  0  0  0
    3.3115   -2.5403   -2.8044 O   0  0  0  0  0  0  0  0  0  0  0  0
   -3.7363   -1.5013   -0.9265 H   0  0  0  0  0  0  0  0  0  0  0  0
   -4.1418   -3.0084   -0.7791 H   0  0  0  0  0  0  0  0  0  0  0  0
   -3.8294    0.4731    1.6697 H   0  0  0  0  0  0  0  0  0  0  0  0
   -2.2830   10.7110    5.0913 H   0  0  0  0  0  0  0  0  0  0  0  0
   -6.1897    1.0190   -0.2705 H   0  0  0  0  0  0  0  0  0  0  0  0
   -4.4098    1.5260    0.6566 H   0  0  0  0  0  0  0  0  0  0  0  0
   -0.4895    3.0799   -2.1286 H   0  0  0  0  0  0  0  0  0  0  0  0
   -0.3187    1.5690   -1.7743 H   0  0  0  0  0  0  0  0  0  0  0  0
   -4.2609   -0.0923   -2.7231 H   0  0  0  0  0  0  0  0  0  0  0  0
   -4.4868    0.6060   -1.3322 H   0  0  0  0  0  0  0  0  0  0  0  0
   -1.8695   -2.6281   -0.6594 H   0  0  0  0  0  0  0  0  0  0  0  0
   -0.5372   -3.3563   -0.3320 H   0  0  0  0  0  0  0  0  0  0  0  0
    4.0678   -2.2365   -3.3314 H   0  0  0  0  0  0  0  0  0  0  0  0
    3.0822   -3.4207   -3.1385 H   0  0  0  0  0  0  0  0  0  0  0  0
    4.9690    1.5856   -0.8375 H   0  0  0  0  0  0  0  0  0  0  0  0
    3.4752    1.7991   -0.4487 H   0  0  0  0  0  0  0  0  0  0  0  0
    2.2288    3.7586    0.1375 H   0  0  0  0  0  0  0  0  0  0  0  0
    1.3780    2.6775   -0.6055 H   0  0  0  0  0  0  0  0  0  0  0  0
    4.1804   -0.0750    0.5469 H   0  0  0  0  0  0  0  0  0  0  0  0
    3.6847   -1.5315    0.7224 H   0  0  0  0  0  0  0  0  0  0  0  0
    1.6609   -1.2060    3.6694 H   0  0  0  0  0  0  0  0  0  0  0  0
    2.9531   -1.4150    2.8413 H   0  0  0  0  0  0  0  0  0  0  0  0
    4.6230   -3.2074    0.0146 H   0  0  0  0  0  0  0  0  0  0  0  0
    3.6003   -2.8341   -1.1157 H   0  0  0  0  0  0  0  0  0  0  0  0
    0.4939    0.1994    3.8659 O   0  0  0  0  0  0  0  0  0  0  0  0
    0.2808    0.9694    4.3925 H   0  0  0  0  0  0  0  0  0  0  0  0
    0.8585    0.5249    3.0087 H   0  0  0  0  0  0  0  0  0  0  0  0
   -2.0666   -3.4512    6.9615 O   0  0  0  0  0  0  0  0  0  0  0  0
   -1.1483   -3.4708    6.6700 H   0  0  0  0  0  0  0  0  0  0  0  0
   -2.3782   -2.5496    6.8363 H   0  0  0  0  0  0  0  0  0  0  0  0
    0.2908    5.8048    4.9915 O   0  0  0  0  0  0  0  0  0  0  0  0
   -0.4953    5.4883    4.5334 H   0  0  0  0  0  0  0  0  0  0  0  0
    0.1001    6.6964    5.2913 H   0  0  0  0  0  0  0  0  0  0  0  0
    3.4720   -3.2772    5.4245 O   0  0  0  0  0  0  0  0  0  0  0  0
    3.2464   -4.1899    5.2265 H   0  0  0  0  0  0  0  0  0  0  0  0
    3.0438   -2.7445    4.7170 H   0  0  0  0  0  0  0  0  0  0  0  0
   -4.6391    2.8104    3.6123 O   0  0  0  0  0  0  0  0  0  0  0  0
   -4.3468    2.3583    2.7871 H   0  0  0  0  0  0  0  0  0  0  0  0
   -4.0443    2.4948    4.2999 H   0  0  0  0  0  0  0  0  0  0  0  0
    5.2500    2.9403    4.5084 O   0  0  0  0  0  0  0  0  0  0  0  0
    5.2737    2.0318    4.8262 H   0  0  0  0  0  0  0  0  0  0  0  0
    4.3485    3.2546    4.6305 H   0  0  0  0  0  0  0  0  0  0  0  0
   -1.9976   -6.6567    2.6998 O   0  0  0  0  0  0  0  0  0  0  0  0
   -1.1173   -6.4251    3.0136 H   0  0  0  0  0  0  0  0  0  0  0  0
   -2.5664   -5.9074    2.9038 H   0  0  0  0  0  0  0  0  0  0  0  0
   -2.7516    7.3148    0.6656 O   0  0  0  0  0  0  0  0  0  0  0  0
   -3.2200    6.5149    0.9287 H   0  0  0  0  0  0  0  0  0  0  0  0
   -2.8934    7.9669    1.3558 H   0  0  0  0  0  0  0  0  0  0  0  0
    6.2174   -2.4530    1.0528 O   0  0  0  0  0  0  0  0  0  0  0  0
    6.5796   -2.7518    1.8886 H   0  0  0  0  0  0  0  0  0  0  0  0
    5.6002   -1.7231    1.2653 H   0  0  0  0  0  0  0  0  0  0  0  0
   -3.8534   -1.2607    2.0561 O   0  0  0  0  0  0  0  0  0  0  0  0
   -3.7787   -1.6948    1.1742 H   0  0  0  0  0  0  0  0  0  0  0  0
   -4.5471   -1.7124    2.5393 H   0  0  0  0  0  0  0  0  0  0  0  0
    2.4335    5.5987    0.4152 O   0  0  0  0  0  0  0  0  0  0  0  0
    3.0244    5.9128    1.1051 H   0  0  0  0  0  0  0  0  0  0  0  0
    1.6323    6.1269    0.4641 H   0  0  0  0  0  0  0  0  0  0  0  0
    3.0046   -5.2801   -3.4307 O   0  0  0  0  0  0  0  0  0  0  0  0
    3.8186   -5.7820   -3.5211 H   0  0  0  0  0  0  0  0  0  0  0  0
    2.3891   -5.8211   -2.9266 H   0  0  0  0  0  0  0  0  0  0  0  0
   -6.6414    3.6190   -1.4560 O   0  0  0  0  0  0  0  0  0  0  0  0
   -6.1320    2.7966   -1.1149 H   0  0  0  0  0  0  0  0  0  0  0  0
   -6.8081    4.1445   -0.6696 H   0  0  0  0  0  0  0  0  0  0  0  0
    6.5288    2.6400   -0.7450 O   0  0  0  0  0  0  0  0  0  0  0  0
    7.0043    2.6000    0.0901 H   0  0  0  0  0  0  0  0  0  0  0  0
    6.5663    3.5487   -1.0553 H   0  0  0  0  0  0  0  0  0  0  0  0
   -4.8649   -4.4909   -1.6116 O   0  0  0  0  0  0  0  0  0  0  0  0
   -4.6297   -5.3516   -1.2512 H   0  0  0  0  0  0  0  0  0  0  0  0
   -4.7895   -4.5502   -2.5690 H   0  0  0  0  0  0  0  0  0  0  0  0
   -1.3724    4.3365   -3.2120 O   0  0  0  0  0  0  0  0  0  0  0  0
   -1.1311    5.2646   -3.1526 H   0  0  0  0  0  0  0  0  0  0  0  0
   -2.3235    4.2839   -3.0832 H   0  0  0  0  0  0  0  0  0  0  0  0
    5.5700   -1.6319   -4.2094 O   0  0  0  0  0  0  0  0  0  0  0  0
    6.3990   -1.5924   -3.7232 H   0  0  0  0  0  0  0  0  0  0  0  0
    5.4964   -0.8179   -4.7159 H   0  0  0  0  0  0  0  0  0  0  0  0
   -4.8464   -0.1335   -4.5341 O   0  0  0  0  0  0  0  0  0  0  0  0
   -4.5207   -0.6959   -5.2449 H   0  0  0  0  0  0  0  0  0  0  0  0
   -5.1541    0.6846   -4.9321 H   0  0  0  0  0  0  0  0  0  0  0  0
    3.6952    4.1041   -4.9525 O   0  0  0  0  0  0  0  0  0  0  0  0
    3.2511    3.2582   -4.8254 H   0  0  0  0  0  0  0  0  0  0  0  0
    3.3805    4.6871   -4.2549 H   0  0  0  0  0  0  0  0  0  0  0  0
   -1.6210   -4.2092   -6.2436 O   0  0  0  0  0  0  0  0  0  0  0  0
   -1.1369   -4.2418   -5.4109 H   0  0  0  0  0  0  0  0  0  0  0  0
   -1.1844   -3.5509   -6.7925 H   0  0  0  0  0  0  0  0  0  0  0  0
   -0.6115    1.1303   -7.4070 O   0  0  0  0  0  0  0  0  0  0  0  0
   -0.4291    1.0262   -6.4662 H   0  0  0  0  0  0  0  0  0  0  0  0
   -0.5415    2.0689   -7.6015 H   0  0  0  0  0  0  0  0  0  0  0  0
  6  8  1  0  0  0  0
  6  9  1  0  0  0  0
  7 10  1  0  0  0  0
  7 11  1  0  0  0  0
  2 12  1  0  0  0  0
  2 13  1  0  0  0  0
  4 14  1  0  0  0  0
  4 15  1  0  0  0  0
  3 16  1  0  0  0  0
  3 17  1  0  0  0  0
  5 18  1  0  0  0  0
  5 19  1  0  0  0  0
 25 32  1  0  0  0  0
 25 33  1  0  0  0  0
 20 34  1  0  0  0  0
 24 36  1  0  0  0  0
 20 37  1  0  0  0  0
 29 38  1  0  0  0  0
 29 39  1  0  0  0  0
 22 40  1  0  0  0  0
 22 41  1  0  0  0  0
 23 42  1  0  0  0  0
 23 43  1  0  0  0  0
 31 44  1  0  0  0  0
 31 45  1  0  0  0  0
 30 46  1  0  0  0  0
 30 47  1  0  0  0  0
 28 48  1  0  0  0  0
 28 49  1  0  0  0  0
 27 50  1  0  0  0  0
 27 51  1  0  0  0  0
 26 52  1  0  0  0  0
 26 53  1  0  0  0  0
 21 54  1  0  0  0  0
 21 55  1  0  0  0  0
 56 57  1  0  0  0  0
 56 58  1  0  0  0  0
 59 60  1  0  0  0  0
 59 61  1  0  0  0  0
 62 63  1  0  0  0  0
 62 64  1  0  0  0  0
 65 66  1  0  0  0  0
 65 67  1  0  0  0  0
 68 69  1  0  0  0  0
 68 70  1  0  0  0  0
 71 72  1  0  0  0  0
 71 73  1  0  0  0  0
 74 75  1  0  0  0  0
 74 76  1  0  0  0  0
 77 78  1  0  0  0  0
 77 79  1  0  0  0  0
 80 81  1  0  0  0  0
 80 82  1  0  0  0  0
 83 84  1  0  0  0  0
 83 85  1  0  0  0  0
 86 87  1  0  0  0  0
 86 88  1  0  0  0  0
 89 90  1  0  0  0  0
 89 91  1  0  0  0  0
 92 93  1  0  0  0  0
 92 94  1  0  0  0  0
 95 96  1  0  0  0  0
 95 97  1  0  0  0  0
 98 99  1  0  0  0  0
 98100  1  0  0  0  0
101102  1  0  0  0  0
101103  1  0  0  0  0
104105  1  0  0  0  0
104106  1  0  0  0  0
107108  1  0  0  0  0
107109  1  0  0  0  0
110111  1  0  0  0  0
110112  1  0  0  0  0
113114  1  0  0  0  0
113115  1  0  0  0  0
116117  1  0  0  0  0
116118  1  0  0  0  0
M  END
