 xtb: 6.6.0 (conda-forge)
          11072416183D

247168  0     0  0            999 V2000
   -0.0000   -0.0002    0.0001 Fe  0  0  0  0  0  0  0  0  0  0  0  0
   -1.4231    1.3919   -0.0217 C   0  0  0  0  0  0  0  0  0  0  0  0
   -1.3920   -1.4234   -0.0166 C   0  0  0  0  0  0  0  0  0  0  0  0
    0.0271   -0.0035   -1.9860 C   0  0  0  0  0  0  0  0  0  0  0  0
    1.4233   -1.3920    0.0217 C   0  0  0  0  0  0  0  0  0  0  0  0
    1.3917    1.4233    0.0166 C   0  0  0  0  0  0  0  0  0  0  0  0
   -0.0272    0.0031    1.9861 C   0  0  0  0  0  0  0  0  0  0  0  0
   -2.2598    2.2110   -0.0346 N   0  0  0  0  0  0  0  0  0  0  0  0
   -2.2108   -2.2604   -0.0264 N   0  0  0  0  0  0  0  0  0  0  0  0
    0.0430   -0.0054   -3.1581 N   0  0  0  0  0  0  0  0  0  0  0  0
    2.2611   -2.2100    0.0342 N   0  0  0  0  0  0  0  0  0  0  0  0
    2.2101    2.2608    0.0263 N   0  0  0  0  0  0  0  0  0  0  0  0
   -0.0432    0.0050    3.1582 N   0  0  0  0  0  0  0  0  0  0  0  0
    1.3181    0.5906    5.4928 O   0  0  0  0  0  0  0  0  0  0  0  0
    0.5205    0.5629    6.0380 H   0  0  0  0  0  0  0  0  0  0  0  0
    0.9889    0.3935    4.5927 H   0  0  0  0  0  0  0  0  0  0  0  0
   -1.6140   -0.1289    5.3822 O   0  0  0  0  0  0  0  0  0  0  0  0
   -1.1174   -0.0714    4.5347 H   0  0  0  0  0  0  0  0  0  0  0  0
   -1.9419   -1.0316    5.4337 H   0  0  0  0  0  0  0  0  0  0  0  0
   -0.5091    5.2336    4.3195 O   0  0  0  0  0  0  0  0  0  0  0  0
   -1.1960    4.5663    4.2341 H   0  0  0  0  0  0  0  0  0  0  0  0
    0.2789    4.8750    3.9032 H   0  0  0  0  0  0  0  0  0  0  0  0
    3.0870   -4.6751    0.8812 O   0  0  0  0  0  0  0  0  0  0  0  0
    3.8490   -4.7038    0.2883 H   0  0  0  0  0  0  0  0  0  0  0  0
    2.6670   -3.8106    0.6870 H   0  0  0  0  0  0  0  0  0  0  0  0
   -4.4726    3.5757    0.8827 O   0  0  0  0  0  0  0  0  0  0  0  0
   -3.7845    2.9154    0.6653 H   0  0  0  0  0  0  0  0  0  0  0  0
   -4.1897    4.3567    0.3860 H   0  0  0  0  0  0  0  0  0  0  0  0
    3.6295    4.4920    0.4935 O   0  0  0  0  0  0  0  0  0  0  0  0
    4.3244    4.4504   -0.1713 H   0  0  0  0  0  0  0  0  0  0  0  0
    3.0837    3.6803    0.3529 H   0  0  0  0  0  0  0  0  0  0  0  0
   -2.5658   -4.2185    1.8640 O   0  0  0  0  0  0  0  0  0  0  0  0
   -1.8616   -4.8471    1.6773 H   0  0  0  0  0  0  0  0  0  0  0  0
   -2.4426   -3.4841    1.2231 H   0  0  0  0  0  0  0  0  0  0  0  0
   -2.4067    4.8810   -0.7016 O   0  0  0  0  0  0  0  0  0  0  0  0
   -2.2778    3.9168   -0.5692 H   0  0  0  0  0  0  0  0  0  0  0  0
   -1.6033    5.3030   -0.3838 H   0  0  0  0  0  0  0  0  0  0  0  0
    4.6163   -2.9040   -1.0762 O   0  0  0  0  0  0  0  0  0  0  0  0
    5.2633   -2.2995   -0.6996 H   0  0  0  0  0  0  0  0  0  0  0  0
    3.7379   -2.6008   -0.7392 H   0  0  0  0  0  0  0  0  0  0  0  0
   -4.2556   -3.5130   -1.2563 O   0  0  0  0  0  0  0  0  0  0  0  0
   -3.4781   -3.0659   -0.8456 H   0  0  0  0  0  0  0  0  0  0  0  0
   -5.0290   -3.1448   -0.8173 H   0  0  0  0  0  0  0  0  0  0  0  0
    1.6548    5.7482   -4.5677 O   0  0  0  0  0  0  0  0  0  0  0  0
    1.7129    5.2121   -5.3655 H   0  0  0  0  0  0  0  0  0  0  0  0
    1.5189    5.1457   -3.8329 H   0  0  0  0  0  0  0  0  0  0  0  0
    1.1491   -0.3342   -5.5912 O   0  0  0  0  0  0  0  0  0  0  0  0
    2.0569   -0.0358   -5.4798 H   0  0  0  0  0  0  0  0  0  0  0  0
    0.7462   -0.2962   -4.6897 H   0  0  0  0  0  0  0  0  0  0  0  0
   -1.1685    1.5667   -5.1194 O   0  0  0  0  0  0  0  0  0  0  0  0
   -0.8706    1.0915   -4.3203 H   0  0  0  0  0  0  0  0  0  0  0  0
   -0.6370    1.1829   -5.8299 H   0  0  0  0  0  0  0  0  0  0  0  0
    3.7141   -0.1112   10.4087 O   0  0  0  0  0  0  0  0  0  0  0  0
    3.6287   -0.9859   10.8024 H   0  0  0  0  0  0  0  0  0  0  0  0
    3.4908   -0.1979    9.4777 H   0  0  0  0  0  0  0  0  0  0  0  0
   -2.0020    0.3497   10.5494 O   0  0  0  0  0  0  0  0  0  0  0  0
   -1.1667    0.8123   10.6713 H   0  0  0  0  0  0  0  0  0  0  0  0
   -2.5058    0.8399    9.8930 H   0  0  0  0  0  0  0  0  0  0  0  0
   -0.6176    7.2998    6.3189 O   0  0  0  0  0  0  0  0  0  0  0  0
   -1.0934    6.8327    7.0130 H   0  0  0  0  0  0  0  0  0  0  0  0
   -0.5409    6.6747    5.5835 H   0  0  0  0  0  0  0  0  0  0  0  0
    3.7554   -4.0333    6.7744 O   0  0  0  0  0  0  0  0  0  0  0  0
    3.4169   -4.9304    6.8633 H   0  0  0  0  0  0  0  0  0  0  0  0
    3.2295   -3.6008    6.0972 H   0  0  0  0  0  0  0  0  0  0  0  0
   -5.8332    3.0339    6.4066 O   0  0  0  0  0  0  0  0  0  0  0  0
   -5.2355    2.7452    5.7120 H   0  0  0  0  0  0  0  0  0  0  0  0
   -6.5069    2.3522    6.5004 H   0  0  0  0  0  0  0  0  0  0  0  0
    4.7123    7.4105    4.9677 O   0  0  0  0  0  0  0  0  0  0  0  0
    4.6115    6.5520    4.5474 H   0  0  0  0  0  0  0  0  0  0  0  0
    4.0383    7.4710    5.6524 H   0  0  0  0  0  0  0  0  0  0  0  0
   -1.1766   -6.4643    6.6519 O   0  0  0  0  0  0  0  0  0  0  0  0
   -0.8259   -7.0106    5.9414 H   0  0  0  0  0  0  0  0  0  0  0  0
   -1.3936   -5.6097    6.2689 H   0  0  0  0  0  0  0  0  0  0  0  0
   -5.1167    8.0483    3.8451 O   0  0  0  0  0  0  0  0  0  0  0  0
   -5.0516    7.3866    4.5405 H   0  0  0  0  0  0  0  0  0  0  0  0
   -4.3656    7.9149    3.2600 H   0  0  0  0  0  0  0  0  0  0  0  0
    7.8472   -5.2171    3.7643 O   0  0  0  0  0  0  0  0  0  0  0  0
    7.0521   -4.7235    3.5455 H   0  0  0  0  0  0  0  0  0  0  0  0
    7.8348   -5.3679    4.7154 H   0  0  0  0  0  0  0  0  0  0  0  0
   -7.0299   -1.4759    3.7047 O   0  0  0  0  0  0  0  0  0  0  0  0
   -6.1268   -1.4032    3.3860 H   0  0  0  0  0  0  0  0  0  0  0  0
   -7.5589   -0.8460    3.2038 H   0  0  0  0  0  0  0  0  0  0  0  0
    1.4345    9.2232    0.8376 O   0  0  0  0  0  0  0  0  0  0  0  0
    1.5935    8.6184    1.5678 H   0  0  0  0  0  0  0  0  0  0  0  0
    1.5800    8.7299    0.0253 H   0  0  0  0  0  0  0  0  0  0  0  0
    2.4563   -6.8072    2.6572 O   0  0  0  0  0  0  0  0  0  0  0  0
    2.5745   -7.5571    2.0641 H   0  0  0  0  0  0  0  0  0  0  0  0
    2.6283   -6.0168    2.1240 H   0  0  0  0  0  0  0  0  0  0  0  0
   -7.2411    3.4220    1.4316 O   0  0  0  0  0  0  0  0  0  0  0  0
   -6.2914    3.3747    1.2393 H   0  0  0  0  0  0  0  0  0  0  0  0
   -7.3840    4.2799    1.8466 H   0  0  0  0  0  0  0  0  0  0  0  0
    6.2997    0.1836    3.3555 O   0  0  0  0  0  0  0  0  0  0  0  0
    5.9886    0.9181    2.8193 H   0  0  0  0  0  0  0  0  0  0  0  0
    5.5197   -0.2891    3.6595 H   0  0  0  0  0  0  0  0  0  0  0  0
   -4.3774   -6.0712   -2.4645 O   0  0  0  0  0  0  0  0  0  0  0  0
   -4.6964   -6.5822   -1.7131 H   0  0  0  0  0  0  0  0  0  0  0  0
   -4.2596   -5.1658   -2.1364 H   0  0  0  0  0  0  0  0  0  0  0  0
   -2.7176   10.5177   -1.7772 O   0  0  0  0  0  0  0  0  0  0  0  0
   -2.5365    9.5929   -1.9687 H   0  0  0  0  0  0  0  0  0  0  0  0
   -1.9654   11.0228   -2.1022 H   0  0  0  0  0  0  0  0  0  0  0  0
    5.0384   -3.4808   -3.8219 O   0  0  0  0  0  0  0  0  0  0  0  0
    5.0225   -4.4436   -3.8526 H   0  0  0  0  0  0  0  0  0  0  0  0
    4.8417   -3.2399   -2.9023 H   0  0  0  0  0  0  0  0  0  0  0  0
   -6.6242    1.8021   -4.0431 O   0  0  0  0  0  0  0  0  0  0  0  0
   -5.7933    1.4935   -4.4158 H   0  0  0  0  0  0  0  0  0  0  0  0
   -6.4726    1.9443   -3.1045 H   0  0  0  0  0  0  0  0  0  0  0  0
    6.5283    8.3602   -2.8091 O   0  0  0  0  0  0  0  0  0  0  0  0
    6.6032    8.6829   -1.8973 H   0  0  0  0  0  0  0  0  0  0  0  0
    5.6216    8.0543   -2.9058 H   0  0  0  0  0  0  0  0  0  0  0  0
    0.8201   -6.8784   -3.5183 O   0  0  0  0  0  0  0  0  0  0  0  0
    0.7359   -6.1064   -2.9530 H   0  0  0  0  0  0  0  0  0  0  0  0
   -0.0608   -7.0823   -3.8497 H   0  0  0  0  0  0  0  0  0  0  0  0
   -3.8843    6.3894   -5.3890 O   0  0  0  0  0  0  0  0  0  0  0  0
   -3.0512    5.9273   -5.2603 H   0  0  0  0  0  0  0  0  0  0  0  0
   -4.5019    6.0415   -4.7393 H   0  0  0  0  0  0  0  0  0  0  0  0
    5.8922   -1.8341   -9.0607 O   0  0  0  0  0  0  0  0  0  0  0  0
    5.4184   -1.9174   -8.2279 H   0  0  0  0  0  0  0  0  0  0  0  0
    5.2308   -1.7475   -9.7551 H   0  0  0  0  0  0  0  0  0  0  0  0
   -4.3199   -2.6299   -6.6823 O   0  0  0  0  0  0  0  0  0  0  0  0
   -3.6943   -2.3297   -6.0180 H   0  0  0  0  0  0  0  0  0  0  0  0
   -4.4361   -3.5767   -6.5507 H   0  0  0  0  0  0  0  0  0  0  0  0
    1.1920    8.5931   -4.6334 O   0  0  0  0  0  0  0  0  0  0  0  0
    1.3655    7.6450   -4.5458 H   0  0  0  0  0  0  0  0  0  0  0  0
    0.7756    8.7100   -5.4935 H   0  0  0  0  0  0  0  0  0  0  0  0
    0.9342   -2.6320   -7.2224 O   0  0  0  0  0  0  0  0  0  0  0  0
    1.2521   -3.3044   -6.6132 H   0  0  0  0  0  0  0  0  0  0  0  0
    0.9247   -1.8029   -6.7161 H   0  0  0  0  0  0  0  0  0  0  0  0
   -4.0066    2.4015   -9.4143 O   0  0  0  0  0  0  0  0  0  0  0  0
   -4.1680    1.6704   -8.8107 H   0  0  0  0  0  0  0  0  0  0  0  0
   -3.5495    3.0842   -8.9134 H   0  0  0  0  0  0  0  0  0  0  0  0
    1.2995    1.2445  -10.7131 O   0  0  0  0  0  0  0  0  0  0  0  0
    1.8535    1.4804   -9.9632 H   0  0  0  0  0  0  0  0  0  0  0  0
    0.4217    1.0579  -10.3658 H   0  0  0  0  0  0  0  0  0  0  0  0
    3.2011    2.2699   11.8949 O   0  0  0  0  0  0  0  0  0  0  0  0
    3.3299    1.4679   11.3635 H   0  0  0  0  0  0  0  0  0  0  0  0
    4.0219    2.3954   12.3818 H   0  0  0  0  0  0  0  0  0  0  0  0
   -2.7093   -2.1693   11.7543 O   0  0  0  0  0  0  0  0  0  0  0  0
   -2.2192   -2.7591   11.1732 H   0  0  0  0  0  0  0  0  0  0  0  0
   -2.5419   -1.2735   11.4243 H   0  0  0  0  0  0  0  0  0  0  0  0
    3.0313    7.5695   10.3816 O   0  0  0  0  0  0  0  0  0  0  0  0
    2.6986    6.6838   10.5577 H   0  0  0  0  0  0  0  0  0  0  0  0
    2.3208    8.0583    9.9548 H   0  0  0  0  0  0  0  0  0  0  0  0
    5.7881   -5.1766   11.5252 O   0  0  0  0  0  0  0  0  0  0  0  0
    6.2659   -4.8273   10.7662 H   0  0  0  0  0  0  0  0  0  0  0  0
    4.9394   -5.4947   11.2018 H   0  0  0  0  0  0  0  0  0  0  0  0
   -4.9560    4.6883    8.5688 O   0  0  0  0  0  0  0  0  0  0  0  0
   -5.2022    4.1047    7.8342 H   0  0  0  0  0  0  0  0  0  0  0  0
   -5.7246    5.2439    8.7350 H   0  0  0  0  0  0  0  0  0  0  0  0
    7.0236    4.0734    8.4492 O   0  0  0  0  0  0  0  0  0  0  0  0
    6.3598    3.3775    8.4309 H   0  0  0  0  0  0  0  0  0  0  0  0
    6.5623    4.8994    8.6259 H   0  0  0  0  0  0  0  0  0  0  0  0
   -0.2675   -6.7577    9.3542 O   0  0  0  0  0  0  0  0  0  0  0  0
   -0.5547   -6.6441    8.4347 H   0  0  0  0  0  0  0  0  0  0  0  0
   -1.0380   -7.0793    9.8331 H   0  0  0  0  0  0  0  0  0  0  0  0
   -4.5545   11.1150    8.0444 O   0  0  0  0  0  0  0  0  0  0  0  0
   -3.8794   10.4410    7.9189 H   0  0  0  0  0  0  0  0  0  0  0  0
   -4.8011   11.4288    7.1686 H   0  0  0  0  0  0  0  0  0  0  0  0
    8.5636   -1.7658    7.7557 O   0  0  0  0  0  0  0  0  0  0  0  0
    8.9973   -1.4370    6.9620 H   0  0  0  0  0  0  0  0  0  0  0  0
    7.6314   -1.5415    7.6786 H   0  0  0  0  0  0  0  0  0  0  0  0
  -11.8896   -3.0020    5.7123 O   0  0  0  0  0  0  0  0  0  0  0  0
  -10.9838   -3.2954    5.5741 H   0  0  0  0  0  0  0  0  0  0  0  0
  -12.0478   -2.2807    5.0950 H   0  0  0  0  0  0  0  0  0  0  0  0
    3.9491   12.7892    3.5399 O   0  0  0  0  0  0  0  0  0  0  0  0
    4.0117   11.9279    3.9642 H   0  0  0  0  0  0  0  0  0  0  0  0
    3.0235   12.9233    3.3131 H   0  0  0  0  0  0  0  0  0  0  0  0
    6.0576  -10.1344    5.2858 O   0  0  0  0  0  0  0  0  0  0  0  0
    6.5704   -9.8404    4.5261 H   0  0  0  0  0  0  0  0  0  0  0  0
    5.2284   -9.6469    5.2700 H   0  0  0  0  0  0  0  0  0  0  0  0
  -10.3614    7.8297    4.1246 O   0  0  0  0  0  0  0  0  0  0  0  0
   -9.7330    7.2762    4.5984 H   0  0  0  0  0  0  0  0  0  0  0  0
   -9.9069    8.1648    3.3453 H   0  0  0  0  0  0  0  0  0  0  0  0
   10.9021    2.6175    5.2634 O   0  0  0  0  0  0  0  0  0  0  0  0
   10.9054    2.8412    6.1998 H   0  0  0  0  0  0  0  0  0  0  0  0
    9.9911    2.6893    4.9630 H   0  0  0  0  0  0  0  0  0  0  0  0
   -6.9063   -6.9909    2.5395 O   0  0  0  0  0  0  0  0  0  0  0  0
   -6.0066   -7.1362    2.8476 H   0  0  0  0  0  0  0  0  0  0  0  0
   -6.9933   -6.0484    2.3679 H   0  0  0  0  0  0  0  0  0  0  0  0
   -1.6692   12.1727    3.6106 O   0  0  0  0  0  0  0  0  0  0  0  0
   -1.3371   11.3739    4.0320 H   0  0  0  0  0  0  0  0  0  0  0  0
   -1.9841   11.9190    2.7375 H   0  0  0  0  0  0  0  0  0  0  0  0
    9.2254   -6.8357    1.8478 O   0  0  0  0  0  0  0  0  0  0  0  0
    9.9603   -6.2759    1.5789 H   0  0  0  0  0  0  0  0  0  0  0  0
    8.7272   -6.3205    2.5020 H   0  0  0  0  0  0  0  0  0  0  0  0
  -12.2874    1.0419    1.7844 O   0  0  0  0  0  0  0  0  0  0  0  0
  -11.3948    1.3691    1.6380 H   0  0  0  0  0  0  0  0  0  0  0  0
  -12.8611    1.5161    1.1736 H   0  0  0  0  0  0  0  0  0  0  0  0
    6.3592    9.2413   -0.0896 O   0  0  0  0  0  0  0  0  0  0  0  0
    6.1937    8.6479    0.6491 H   0  0  0  0  0  0  0  0  0  0  0  0
    6.0365   10.1115    0.1680 H   0  0  0  0  0  0  0  0  0  0  0  0
   -0.0299  -10.9771   -0.2813 O   0  0  0  0  0  0  0  0  0  0  0  0
    0.7971  -10.8792   -0.7643 H   0  0  0  0  0  0  0  0  0  0  0  0
   -0.4887  -10.1337   -0.3344 H   0  0  0  0  0  0  0  0  0  0  0  0
   -7.5066    8.6318   -0.6897 O   0  0  0  0  0  0  0  0  0  0  0  0
   -6.7450    8.0528   -0.7873 H   0  0  0  0  0  0  0  0  0  0  0  0
   -7.1668    9.5254   -0.5773 H   0  0  0  0  0  0  0  0  0  0  0  0
   11.3711   -1.6785    1.8333 O   0  0  0  0  0  0  0  0  0  0  0  0
   11.6787   -0.9285    2.3526 H   0  0  0  0  0  0  0  0  0  0  0  0
   10.4100   -1.6656    1.8648 H   0  0  0  0  0  0  0  0  0  0  0  0
   -8.9805   -4.0525   -4.5911 O   0  0  0  0  0  0  0  0  0  0  0  0
   -8.4042   -4.8097   -4.4481 H   0  0  0  0  0  0  0  0  0  0  0  0
   -8.5071   -3.2761   -4.2779 H   0  0  0  0  0  0  0  0  0  0  0  0
    2.3940   13.4412   -2.1661 O   0  0  0  0  0  0  0  0  0  0  0  0
    2.5248   12.5626   -2.5360 H   0  0  0  0  0  0  0  0  0  0  0  0
    2.0892   13.3218   -1.2610 H   0  0  0  0  0  0  0  0  0  0  0  0
    5.3420   -9.3813   -1.3911 O   0  0  0  0  0  0  0  0  0  0  0  0
    6.0021   -8.9137   -0.8692 H   0  0  0  0  0  0  0  0  0  0  0  0
    4.8106   -8.7156   -1.8376 H   0  0  0  0  0  0  0  0  0  0  0  0
  -11.1816    4.6012   -1.9314 O   0  0  0  0  0  0  0  0  0  0  0  0
  -10.5378    4.0755   -2.4154 H   0  0  0  0  0  0  0  0  0  0  0  0
  -10.6854    5.2318   -1.3999 H   0  0  0  0  0  0  0  0  0  0  0  0
    9.8852    5.6798   -5.7874 O   0  0  0  0  0  0  0  0  0  0  0  0
    9.8549    5.8593   -4.8427 H   0  0  0  0  0  0  0  0  0  0  0  0
    9.0669    6.0213   -6.1621 H   0  0  0  0  0  0  0  0  0  0  0  0
   -4.5753   -9.3045   -7.1017 O   0  0  0  0  0  0  0  0  0  0  0  0
   -3.8083   -8.9909   -7.5915 H   0  0  0  0  0  0  0  0  0  0  0  0
   -4.5970   -8.8216   -6.2699 H   0  0  0  0  0  0  0  0  0  0  0  0
   -2.8477   10.8203   -7.9703 O   0  0  0  0  0  0  0  0  0  0  0  0
   -2.7157    9.9414   -8.3393 H   0  0  0  0  0  0  0  0  0  0  0  0
   -3.1711   10.7004   -7.0720 H   0  0  0  0  0  0  0  0  0  0  0  0
    8.5625   -0.7946   -9.1393 O   0  0  0  0  0  0  0  0  0  0  0  0
    9.0257   -1.3927   -8.5450 H   0  0  0  0  0  0  0  0  0  0  0  0
    7.6493   -1.1197   -9.1844 H   0  0  0  0  0  0  0  0  0  0  0  0
   -8.9477   -0.1636   -8.6567 O   0  0  0  0  0  0  0  0  0  0  0  0
   -8.5098   -0.9451   -8.3054 H   0  0  0  0  0  0  0  0  0  0  0  0
   -8.6846    0.5779   -8.1029 H   0  0  0  0  0  0  0  0  0  0  0  0
    5.0617    8.5156   -8.0362 O   0  0  0  0  0  0  0  0  0  0  0  0
    4.9373    7.6886   -7.5608 H   0  0  0  0  0  0  0  0  0  0  0  0
    5.0803    9.2161   -7.3763 H   0  0  0  0  0  0  0  0  0  0  0  0
    0.4404   -7.6679   -9.2005 O   0  0  0  0  0  0  0  0  0  0  0  0
    0.9338   -7.5726   -8.3802 H   0  0  0  0  0  0  0  0  0  0  0  0
    0.3122   -6.7831   -9.5569 H   0  0  0  0  0  0  0  0  0  0  0  0
   -6.8766    7.0486  -10.1249 O   0  0  0  0  0  0  0  0  0  0  0  0
   -6.7907    6.1193  -10.3596 H   0  0  0  0  0  0  0  0  0  0  0  0
   -6.3959    7.1748   -9.3009 H   0  0  0  0  0  0  0  0  0  0  0  0
    5.4408    2.9638   -7.2373 O   0  0  0  0  0  0  0  0  0  0  0  0
    5.8800    3.0172   -8.0935 H   0  0  0  0  0  0  0  0  0  0  0  0
    6.0239    2.4650   -6.6579 H   0  0  0  0  0  0  0  0  0  0  0  0
   -2.5178   -2.6874  -11.6274 O   0  0  0  0  0  0  0  0  0  0  0  0
   -1.9993   -2.8712  -10.8382 H   0  0  0  0  0  0  0  0  0  0  0  0
   -3.2575   -2.1362  -11.3531 H   0  0  0  0  0  0  0  0  0  0  0  0
    0.0662    6.2988   -9.6559 O   0  0  0  0  0  0  0  0  0  0  0  0
   -0.0542    5.7863  -10.4617 H   0  0  0  0  0  0  0  0  0  0  0  0
    0.9170    6.7433   -9.7291 H   0  0  0  0  0  0  0  0  0  0  0  0
    2.2456   -0.0997  -13.0683 O   0  0  0  0  0  0  0  0  0  0  0  0
    1.4977   -0.6646  -13.2869 H   0  0  0  0  0  0  0  0  0  0  0  0
    1.9737    0.4149  -12.2919 H   0  0  0  0  0  0  0  0  0  0  0  0
  1  2  1  0  0  0  0
  1  3  1  0  0  0  0
  1  4  1  0  0  0  0
  1  5  1  0  0  0  0
  1  6  1  0  0  0  0
  1  7  1  0  0  0  0
  2  8  3  0  0  0  0
  3  9  3  0  0  0  0
  4 10  3  0  0  0  0
  5 11  3  0  0  0  0
  6 12  3  0  0  0  0
  7 13  3  0  0  0  0
 14 15  1  0  0  0  0
 14 16  1  0  0  0  0
 17 18  1  0  0  0  0
 17 19  1  0  0  0  0
 20 21  1  0  0  0  0
 20 22  1  0  0  0  0
 23 24  1  0  0  0  0
 23 25  1  0  0  0  0
 26 27  1  0  0  0  0
 26 28  1  0  0  0  0
 29 30  1  0  0  0  0
 29 31  1  0  0  0  0
 32 33  1  0  0  0  0
 32 34  1  0  0  0  0
 35 36  1  0  0  0  0
 35 37  1  0  0  0  0
 38 39  1  0  0  0  0
 38 40  1  0  0  0  0
 41 42  1  0  0  0  0
 41 43  1  0  0  0  0
 44 45  1  0  0  0  0
 44 46  1  0  0  0  0
 47 48  1  0  0  0  0
 47 49  1  0  0  0  0
 50 51  1  0  0  0  0
 50 52  1  0  0  0  0
 53 54  1  0  0  0  0
 53 55  1  0  0  0  0
 56 57  1  0  0  0  0
 56 58  1  0  0  0  0
 59 60  1  0  0  0  0
 59 61  1  0  0  0  0
 62 63  1  0  0  0  0
 62 64  1  0  0  0  0
 65 66  1  0  0  0  0
 65 67  1  0  0  0  0
 68 69  1  0  0  0  0
 68 70  1  0  0  0  0
 71 72  1  0  0  0  0
 71 73  1  0  0  0  0
 74 75  1  0  0  0  0
 74 76  1  0  0  0  0
 77 78  1  0  0  0  0
 77 79  1  0  0  0  0
 80 81  1  0  0  0  0
 80 82  1  0  0  0  0
 83 84  1  0  0  0  0
 83 85  1  0  0  0  0
 86 87  1  0  0  0  0
 86 88  1  0  0  0  0
 89 90  1  0  0  0  0
 89 91  1  0  0  0  0
 92 93  1  0  0  0  0
 92 94  1  0  0  0  0
 95 96  1  0  0  0  0
 95 97  1  0  0  0  0
 98 99  1  0  0  0  0
 98100  1  0  0  0  0
101102  1  0  0  0  0
101103  1  0  0  0  0
104105  1  0  0  0  0
104106  1  0  0  0  0
107108  1  0  0  0  0
107109  1  0  0  0  0
110111  1  0  0  0  0
110112  1  0  0  0  0
113114  1  0  0  0  0
113115  1  0  0  0  0
116117  1  0  0  0  0
116118  1  0  0  0  0
119120  1  0  0  0  0
119121  1  0  0  0  0
122123  1  0  0  0  0
122124  1  0  0  0  0
125126  1  0  0  0  0
125127  1  0  0  0  0
128129  1  0  0  0  0
128130  1  0  0  0  0
131132  1  0  0  0  0
131133  1  0  0  0  0
134135  1  0  0  0  0
134136  1  0  0  0  0
137138  1  0  0  0  0
137139  1  0  0  0  0
140141  1  0  0  0  0
140142  1  0  0  0  0
143144  1  0  0  0  0
143145  1  0  0  0  0
146147  1  0  0  0  0
146148  1  0  0  0  0
149150  1  0  0  0  0
149151  1  0  0  0  0
152153  1  0  0  0  0
152154  1  0  0  0  0
155156  1  0  0  0  0
155157  1  0  0  0  0
158159  1  0  0  0  0
158160  1  0  0  0  0
161162  1  0  0  0  0
161163  1  0  0  0  0
164165  1  0  0  0  0
164166  1  0  0  0  0
167168  1  0  0  0  0
167169  1  0  0  0  0
170171  1  0  0  0  0
170172  1  0  0  0  0
173174  1  0  0  0  0
173175  1  0  0  0  0
176177  1  0  0  0  0
176178  1  0  0  0  0
179180  1  0  0  0  0
179181  1  0  0  0  0
182183  1  0  0  0  0
182184  1  0  0  0  0
185186  1  0  0  0  0
185187  1  0  0  0  0
188189  1  0  0  0  0
188190  1  0  0  0  0
191192  1  0  0  0  0
191193  1  0  0  0  0
194195  1  0  0  0  0
194196  1  0  0  0  0
197198  1  0  0  0  0
197199  1  0  0  0  0
200201  1  0  0  0  0
200202  1  0  0  0  0
203204  1  0  0  0  0
203205  1  0  0  0  0
206207  1  0  0  0  0
206208  1  0  0  0  0
209210  1  0  0  0  0
209211  1  0  0  0  0
212213  1  0  0  0  0
212214  1  0  0  0  0
215216  1  0  0  0  0
215217  1  0  0  0  0
218219  1  0  0  0  0
218220  1  0  0  0  0
221222  1  0  0  0  0
221223  1  0  0  0  0
224225  1  0  0  0  0
224226  1  0  0  0  0
227228  1  0  0  0  0
227229  1  0  0  0  0
230231  1  0  0  0  0
230232  1  0  0  0  0
233234  1  0  0  0  0
233235  1  0  0  0  0
236237  1  0  0  0  0
236238  1  0  0  0  0
239240  1  0  0  0  0
239241  1  0  0  0  0
242243  1  0  0  0  0
242244  1  0  0  0  0
245246  1  0  0  0  0
245247  1  0  0  0  0
M  CHG  1   1  -4
M  END
