 xtb: 6.6.0 (conda-forge)
          07092423273D

161108  0     0  0            999 V2000
    0.5021   -0.2283    0.2273 Mn  0  0  0  0  0  0  0  0  0  0  0  0
   -0.7005    0.6546    0.0889 O   0  0  0  0  0  0  0  0  0  0  0  0
    0.6307   -1.0671   -0.9997 O   0  0  0  0  0  0  0  0  0  0  0  0
    0.3422   -1.1157    1.4072 O   0  0  0  0  0  0  0  0  0  0  0  0
    1.6877    0.6510    0.4334 O   0  0  0  0  0  0  0  0  0  0  0  0
   -1.7961   -1.8226    0.0936 O   0  0  0  0  0  0  0  0  0  0  0  0
   -2.6036   -1.5604    0.5855 H   0  0  0  0  0  0  0  0  0  0  0  0
   -2.1123   -2.1189   -0.7896 H   0  0  0  0  0  0  0  0  0  0  0  0
    1.1481   -1.6022   -3.5230 O   0  0  0  0  0  0  0  0  0  0  0  0
    0.9403   -1.3390   -2.5951 H   0  0  0  0  0  0  0  0  0  0  0  0
    1.5188   -0.8128   -3.9546 H   0  0  0  0  0  0  0  0  0  0  0  0
   -2.9616    0.3668   -1.4228 O   0  0  0  0  0  0  0  0  0  0  0  0
   -2.8941    0.5498   -2.3834 H   0  0  0  0  0  0  0  0  0  0  0  0
   -2.0680    0.3153   -1.0545 H   0  0  0  0  0  0  0  0  0  0  0  0
   -0.3878   -3.7316    1.7314 O   0  0  0  0  0  0  0  0  0  0  0  0
   -0.2431   -2.7818    1.5524 H   0  0  0  0  0  0  0  0  0  0  0  0
   -0.9363   -4.0591    0.9994 H   0  0  0  0  0  0  0  0  0  0  0  0
    0.8747    1.4813   -2.0500 O   0  0  0  0  0  0  0  0  0  0  0  0
    1.5322    2.1794   -1.8499 H   0  0  0  0  0  0  0  0  0  0  0  0
    1.2327    1.0805   -2.8735 H   0  0  0  0  0  0  0  0  0  0  0  0
   -3.0129    1.3829    1.1827 O   0  0  0  0  0  0  0  0  0  0  0  0
   -2.1152    1.1147    0.8980 H   0  0  0  0  0  0  0  0  0  0  0  0
   -3.5328    0.5550    1.1583 H   0  0  0  0  0  0  0  0  0  0  0  0
    2.9053   -1.7019    0.3118 O   0  0  0  0  0  0  0  0  0  0  0  0
    2.6814   -2.5068    0.8342 H   0  0  0  0  0  0  0  0  0  0  0  0
    3.0669   -1.9857   -0.6136 H   0  0  0  0  0  0  0  0  0  0  0  0
   -0.1864    3.2958    0.0273 O   0  0  0  0  0  0  0  0  0  0  0  0
   -0.3399    2.3357   -0.0130 H   0  0  0  0  0  0  0  0  0  0  0  0
   -0.9988    3.7205    0.3711 H   0  0  0  0  0  0  0  0  0  0  0  0
   -1.5565   -0.8236    3.2364 O   0  0  0  0  0  0  0  0  0  0  0  0
   -1.7599    0.1139    3.4149 H   0  0  0  0  0  0  0  0  0  0  0  0
   -0.8932   -0.8331    2.5213 H   0  0  0  0  0  0  0  0  0  0  0  0
    4.0490    1.4697   -0.2614 O   0  0  0  0  0  0  0  0  0  0  0  0
    4.6065    0.8114    0.2293 H   0  0  0  0  0  0  0  0  0  0  0  0
    3.1235    1.1653   -0.0868 H   0  0  0  0  0  0  0  0  0  0  0  0
    0.2415    1.3337    2.6041 O   0  0  0  0  0  0  0  0  0  0  0  0
    0.6155    2.2284    2.5364 H   0  0  0  0  0  0  0  0  0  0  0  0
    0.3485    1.0969    3.5537 H   0  0  0  0  0  0  0  0  0  0  0  0
    3.1194    0.4236    2.8131 O   0  0  0  0  0  0  0  0  0  0  0  0
    2.4601    0.4267    2.0982 H   0  0  0  0  0  0  0  0  0  0  0  0
    3.9341    0.0596    2.4283 H   0  0  0  0  0  0  0  0  0  0  0  0
   -2.7738   -2.7550   -2.2287 O   0  0  0  0  0  0  0  0  0  0  0  0
   -3.6718   -2.3824   -2.0975 H   0  0  0  0  0  0  0  0  0  0  0  0
   -2.3488   -2.2437   -2.9490 H   0  0  0  0  0  0  0  0  0  0  0  0
   -1.4774   -1.4937   -4.2284 O   0  0  0  0  0  0  0  0  0  0  0  0
   -1.6431   -2.2640   -4.8114 H   0  0  0  0  0  0  0  0  0  0  0  0
   -0.5229   -1.5218   -4.0208 H   0  0  0  0  0  0  0  0  0  0  0  0
   -4.9517   -1.3547   -1.5710 O   0  0  0  0  0  0  0  0  0  0  0  0
   -5.3857   -0.9716   -2.3582 H   0  0  0  0  0  0  0  0  0  0  0  0
   -4.2763   -0.6817   -1.3329 H   0  0  0  0  0  0  0  0  0  0  0  0
   -2.1014   -4.6028   -0.3490 O   0  0  0  0  0  0  0  0  0  0  0  0
   -2.3970   -4.1356   -1.1482 H   0  0  0  0  0  0  0  0  0  0  0  0
   -2.8474   -4.4778    0.2765 H   0  0  0  0  0  0  0  0  0  0  0  0
    2.2097    0.7327   -4.2412 O   0  0  0  0  0  0  0  0  0  0  0  0
    3.0774    0.6064   -3.8075 H   0  0  0  0  0  0  0  0  0  0  0  0
    2.2179    1.6429   -4.6072 H   0  0  0  0  0  0  0  0  0  0  0  0
   -4.1391   -1.0533    1.2053 O   0  0  0  0  0  0  0  0  0  0  0  0
   -4.7226   -1.4908    0.5763 H   0  0  0  0  0  0  0  0  0  0  0  0
   -4.4294   -1.3274    2.1077 H   0  0  0  0  0  0  0  0  0  0  0  0
    3.4419   -2.4610   -2.2034 O   0  0  0  0  0  0  0  0  0  0  0  0
    3.4398   -3.3847   -1.8811 H   0  0  0  0  0  0  0  0  0  0  0  0
    2.6578   -2.3627   -2.7702 H   0  0  0  0  0  0  0  0  0  0  0  0
   -1.3729    2.7297   -2.7511 O   0  0  0  0  0  0  0  0  0  0  0  0
   -0.6009    2.2291   -2.4001 H   0  0  0  0  0  0  0  0  0  0  0  0
   -0.9946    3.5305   -3.1445 H   0  0  0  0  0  0  0  0  0  0  0  0
   -2.4705   -3.3363    3.4032 O   0  0  0  0  0  0  0  0  0  0  0  0
   -2.3249   -2.3740    3.3404 H   0  0  0  0  0  0  0  0  0  0  0  0
   -1.6763   -3.7057    2.9707 H   0  0  0  0  0  0  0  0  0  0  0  0
    4.3122    0.1490   -2.6323 O   0  0  0  0  0  0  0  0  0  0  0  0
    4.0931   -0.7749   -2.4313 H   0  0  0  0  0  0  0  0  0  0  0  0
    4.1838    0.6609   -1.8068 H   0  0  0  0  0  0  0  0  0  0  0  0
   -3.3649    3.1117   -0.8896 O   0  0  0  0  0  0  0  0  0  0  0  0
   -2.6833    2.9561   -1.5758 H   0  0  0  0  0  0  0  0  0  0  0  0
   -3.2910    2.3630   -0.2584 H   0  0  0  0  0  0  0  0  0  0  0  0
    2.3121   -3.7517    1.8972 O   0  0  0  0  0  0  0  0  0  0  0  0
    1.3632   -3.9579    1.8025 H   0  0  0  0  0  0  0  0  0  0  0  0
    2.3371   -3.1294    2.6582 H   0  0  0  0  0  0  0  0  0  0  0  0
    1.1639    5.2419   -1.2293 O   0  0  0  0  0  0  0  0  0  0  0  0
    0.6090    4.5376   -0.8436 H   0  0  0  0  0  0  0  0  0  0  0  0
    1.4076    5.8191   -0.4664 H   0  0  0  0  0  0  0  0  0  0  0  0
   -2.3710    1.7366    3.7261 O   0  0  0  0  0  0  0  0  0  0  0  0
   -2.7187    1.6987    2.8058 H   0  0  0  0  0  0  0  0  0  0  0  0
   -1.9082    2.6035    3.7673 H   0  0  0  0  0  0  0  0  0  0  0  0
    5.0925   -0.4874    1.1234 O   0  0  0  0  0  0  0  0  0  0  0  0
    4.3338   -1.0528    0.8448 H   0  0  0  0  0  0  0  0  0  0  0  0
    5.8874   -0.8981    0.7305 H   0  0  0  0  0  0  0  0  0  0  0  0
    1.2614    3.8744    2.1614 O   0  0  0  0  0  0  0  0  0  0  0  0
    0.8568    3.6508    1.2939 H   0  0  0  0  0  0  0  0  0  0  0  0
    2.1968    3.5809    2.1243 H   0  0  0  0  0  0  0  0  0  0  0  0
    2.3750   -1.9708    3.9124 O   0  0  0  0  0  0  0  0  0  0  0  0
    1.5387   -1.9211    4.4089 H   0  0  0  0  0  0  0  0  0  0  0  0
    2.5812   -1.0625    3.6196 H   0  0  0  0  0  0  0  0  0  0  0  0
    3.7672    2.9434    2.0039 O   0  0  0  0  0  0  0  0  0  0  0  0
    3.9468    2.5405    1.1297 H   0  0  0  0  0  0  0  0  0  0  0  0
    3.6403    2.1806    2.5991 H   0  0  0  0  0  0  0  0  0  0  0  0
    0.2068    0.9327    5.2484 O   0  0  0  0  0  0  0  0  0  0  0  0
    0.2446   -0.0074    5.4763 H   0  0  0  0  0  0  0  0  0  0  0  0
   -0.6983    1.2210    5.3934 H   0  0  0  0  0  0  0  0  0  0  0  0
   -0.0543   -1.8208    5.1729 O   0  0  0  0  0  0  0  0  0  0  0  0
   -0.4418   -2.6269    5.5153 H   0  0  0  0  0  0  0  0  0  0  0  0
   -0.6473   -1.5102    4.4446 H   0  0  0  0  0  0  0  0  0  0  0  0
   -1.2485    4.1299    3.4190 O   0  0  0  0  0  0  0  0  0  0  0  0
   -0.3068    4.1272    3.2006 H   0  0  0  0  0  0  0  0  0  0  0  0
   -1.7087    4.4129    2.6157 H   0  0  0  0  0  0  0  0  0  0  0  0
    4.5293   -3.7000    3.9975 O   0  0  0  0  0  0  0  0  0  0  0  0
    4.1928   -4.1709    3.2292 H   0  0  0  0  0  0  0  0  0  0  0  0
    3.8789   -3.0025    4.1866 H   0  0  0  0  0  0  0  0  0  0  0  0
   -4.1077    0.3699    5.2585 O   0  0  0  0  0  0  0  0  0  0  0  0
   -4.8153    0.9608    5.5168 H   0  0  0  0  0  0  0  0  0  0  0  0
   -3.4736    0.9042    4.7389 H   0  0  0  0  0  0  0  0  0  0  0  0
    4.4313    5.5584    1.4072 O   0  0  0  0  0  0  0  0  0  0  0  0
    5.0561    5.9461    2.0199 H   0  0  0  0  0  0  0  0  0  0  0  0
    4.2887    4.6424    1.6973 H   0  0  0  0  0  0  0  0  0  0  0  0
   -4.0743   -3.9968    1.3642 O   0  0  0  0  0  0  0  0  0  0  0  0
   -4.7438   -4.6057    1.6727 H   0  0  0  0  0  0  0  0  0  0  0  0
   -3.5454   -3.7300    2.1520 H   0  0  0  0  0  0  0  0  0  0  0  0
   -2.2979    4.7572    0.8639 O   0  0  0  0  0  0  0  0  0  0  0  0
   -2.8705    4.2453    0.2404 H   0  0  0  0  0  0  0  0  0  0  0  0
   -2.3196    5.6722    0.5831 H   0  0  0  0  0  0  0  0  0  0  0  0
    6.9829   -1.6367   -0.3944 O   0  0  0  0  0  0  0  0  0  0  0  0
    6.8678   -2.5401   -0.6936 H   0  0  0  0  0  0  0  0  0  0  0  0
    7.0826   -1.0893   -1.2018 H   0  0  0  0  0  0  0  0  0  0  0  0
   -4.8508   -1.7152    3.6816 O   0  0  0  0  0  0  0  0  0  0  0  0
   -4.2916   -2.4534    3.9419 H   0  0  0  0  0  0  0  0  0  0  0  0
   -4.6105   -0.9762    4.2765 H   0  0  0  0  0  0  0  0  0  0  0  0
    1.8286    6.3545    1.0727 O   0  0  0  0  0  0  0  0  0  0  0  0
    1.5067    5.6443    1.6553 H   0  0  0  0  0  0  0  0  0  0  0  0
    2.7986    6.2826    1.1144 H   0  0  0  0  0  0  0  0  0  0  0  0
    0.3950   -3.7766   -1.2591 O   0  0  0  0  0  0  0  0  0  0  0  0
    0.3993   -2.8167   -1.0912 H   0  0  0  0  0  0  0  0  0  0  0  0
   -0.4367   -4.1265   -0.9066 H   0  0  0  0  0  0  0  0  0  0  0  0
   -5.7804    2.2039   -1.7471 O   0  0  0  0  0  0  0  0  0  0  0  0
   -4.9147    2.6088   -1.5335 H   0  0  0  0  0  0  0  0  0  0  0  0
   -6.0787    1.7722   -0.9448 H   0  0  0  0  0  0  0  0  0  0  0  0
    7.0026   -0.1051   -2.6173 O   0  0  0  0  0  0  0  0  0  0  0  0
    7.3907    0.7701   -2.6043 H   0  0  0  0  0  0  0  0  0  0  0  0
    6.0403    0.0145   -2.7605 H   0  0  0  0  0  0  0  0  0  0  0  0
   -1.7667   -3.9486   -5.2240 O   0  0  0  0  0  0  0  0  0  0  0  0
   -0.9050   -4.2273   -4.8376 H   0  0  0  0  0  0  0  0  0  0  0  0
   -2.4459   -4.4187   -4.7375 H   0  0  0  0  0  0  0  0  0  0  0  0
    0.0732    4.9114   -3.6675 O   0  0  0  0  0  0  0  0  0  0  0  0
    0.5109    5.1425   -2.8216 H   0  0  0  0  0  0  0  0  0  0  0  0
   -0.1670    5.7354   -4.0909 H   0  0  0  0  0  0  0  0  0  0  0  0
    2.9196   -4.6657   -0.7612 O   0  0  0  0  0  0  0  0  0  0  0  0
    1.9731   -4.5385   -0.9561 H   0  0  0  0  0  0  0  0  0  0  0  0
    2.9903   -4.5956    0.1978 H   0  0  0  0  0  0  0  0  0  0  0  0
   -5.4907    0.2852   -3.6113 O   0  0  0  0  0  0  0  0  0  0  0  0
   -4.6071    0.4739   -3.9687 H   0  0  0  0  0  0  0  0  0  0  0  0
   -5.7082    1.0541   -3.0410 H   0  0  0  0  0  0  0  0  0  0  0  0
    2.8677    3.3253   -1.9446 O   0  0  0  0  0  0  0  0  0  0  0  0
    3.5109    3.0067   -1.3031 H   0  0  0  0  0  0  0  0  0  0  0  0
    2.4422    4.1381   -1.6025 H   0  0  0  0  0  0  0  0  0  0  0  0
    0.5452   -4.2826   -3.9326 O   0  0  0  0  0  0  0  0  0  0  0  0
    0.4404   -4.2644   -2.9621 H   0  0  0  0  0  0  0  0  0  0  0  0
    0.9496   -3.4321   -4.1445 H   0  0  0  0  0  0  0  0  0  0  0  0
   -2.8143    0.8453   -4.0638 O   0  0  0  0  0  0  0  0  0  0  0  0
   -2.2299    1.5970   -3.8610 H   0  0  0  0  0  0  0  0  0  0  0  0
   -2.2619    0.0779   -4.2967 H   0  0  0  0  0  0  0  0  0  0  0  0
    2.2338    3.3705   -4.6066 O   0  0  0  0  0  0  0  0  0  0  0  0
    2.6772    3.4348   -3.7445 H   0  0  0  0  0  0  0  0  0  0  0  0
    1.3968    3.8447   -4.4894 H   0  0  0  0  0  0  0  0  0  0  0  0
  1  2  2  0  0  0  0
  1  3  2  0  0  0  0
  1  4  2  0  0  0  0
  1  5  2  0  0  0  0
  6  7  1  0  0  0  0
  6  8  1  0  0  0  0
  9 10  1  0  0  0  0
  9 11  1  0  0  0  0
 12 13  1  0  0  0  0
 12 14  1  0  0  0  0
 15 16  1  0  0  0  0
 15 17  1  0  0  0  0
 18 19  1  0  0  0  0
 18 20  1  0  0  0  0
 21 22  1  0  0  0  0
 21 23  1  0  0  0  0
 24 25  1  0  0  0  0
 24 26  1  0  0  0  0
 27 28  1  0  0  0  0
 27 29  1  0  0  0  0
 30 31  1  0  0  0  0
 30 32  1  0  0  0  0
 33 34  1  0  0  0  0
 33 35  1  0  0  0  0
 36 37  1  0  0  0  0
 36 38  1  0  0  0  0
 39 40  1  0  0  0  0
 39 41  1  0  0  0  0
 42 43  1  0  0  0  0
 42 44  1  0  0  0  0
 45 46  1  0  0  0  0
 45 47  1  0  0  0  0
 48 49  1  0  0  0  0
 48 50  1  0  0  0  0
 51 52  1  0  0  0  0
 51 53  1  0  0  0  0
 54 55  1  0  0  0  0
 54 56  1  0  0  0  0
 57 58  1  0  0  0  0
 57 59  1  0  0  0  0
 60 61  1  0  0  0  0
 60 62  1  0  0  0  0
 63 64  1  0  0  0  0
 63 65  1  0  0  0  0
 66 67  1  0  0  0  0
 66 68  1  0  0  0  0
 69 70  1  0  0  0  0
 69 71  1  0  0  0  0
 72 73  1  0  0  0  0
 72 74  1  0  0  0  0
 75 76  1  0  0  0  0
 75 77  1  0  0  0  0
 78 79  1  0  0  0  0
 78 80  1  0  0  0  0
 81 82  1  0  0  0  0
 81 83  1  0  0  0  0
 84 85  1  0  0  0  0
 84 86  1  0  0  0  0
 87 88  1  0  0  0  0
 87 89  1  0  0  0  0
 90 91  1  0  0  0  0
 90 92  1  0  0  0  0
 93 94  1  0  0  0  0
 93 95  1  0  0  0  0
 96 97  1  0  0  0  0
 96 98  1  0  0  0  0
 99100  1  0  0  0  0
 99101  1  0  0  0  0
102103  1  0  0  0  0
102104  1  0  0  0  0
105106  1  0  0  0  0
105107  1  0  0  0  0
108109  1  0  0  0  0
108110  1  0  0  0  0
111112  1  0  0  0  0
111113  1  0  0  0  0
114115  1  0  0  0  0
114116  1  0  0  0  0
117118  1  0  0  0  0
117119  1  0  0  0  0
120121  1  0  0  0  0
120122  1  0  0  0  0
123124  1  0  0  0  0
123125  1  0  0  0  0
126127  1  0  0  0  0
126128  1  0  0  0  0
129130  1  0  0  0  0
129131  1  0  0  0  0
132133  1  0  0  0  0
132134  1  0  0  0  0
135136  1  0  0  0  0
135137  1  0  0  0  0
138139  1  0  0  0  0
138140  1  0  0  0  0
141142  1  0  0  0  0
141143  1  0  0  0  0
144145  1  0  0  0  0
144146  1  0  0  0  0
147148  1  0  0  0  0
147149  1  0  0  0  0
150151  1  0  0  0  0
150152  1  0  0  0  0
153154  1  0  0  0  0
153155  1  0  0  0  0
156157  1  0  0  0  0
156158  1  0  0  0  0
159160  1  0  0  0  0
159161  1  0  0  0  0
M  END
