109
Molecule with added oxygen and hydrogen atoms
Fe        -0.00014       -0.00015       -0.00001
O          1.23076       -1.31154        1.15230
H          1.28126       -1.34330        2.11695
O          1.58815        1.44947       -0.04322
H          1.63679        2.23098       -0.60954
O          0.77182       -0.89911       -1.74878
H          0.41856       -1.68286       -2.19116
O         -1.23113        1.31128       -1.15220
H         -1.83987        1.97826       -0.80765
O         -1.58840       -1.44944        0.04303
H         -1.63803       -2.23010        0.61043
O         -0.77086        0.89968        1.74889
H         -0.41659        1.68357        2.19020
H         -1.56502        0.62817        2.22880
H          2.38656        1.44151        0.50114
H          1.83786       -1.98008        0.80789
H         -2.38595       -1.44220       -0.50260
H          1.56632       -0.62664       -2.22758
H         -1.28092        1.34385       -2.11686
O 1.7984984001896385 7.105263157898045e-05 4.125001578947368
H 2.6984984001896386 7.105263157898045e-05 4.125001578947368
H 1.5054870611781974 0.8510377706709642 4.125001578947368
O -2.1946949314558166 -2.0105056954789813 3.3750015789473684
H -1.2946949314558167 -2.0105056954789813 3.3750015789473684
H -2.4877062704672577 -1.159538977439596 3.3750015789473684
O 0.31960678867065884 3.641123902967989 2.625001578947368
H 1.2196067886706587 3.641123902967989 2.625001578947368
H 0.02659544965921784 4.4920906210073746 2.625001578947368
O 2.4890432191130913 -3.246364746043323 1.8750015789473684
H 3.3890432191130913 -3.246364746043323 1.8750015789473684
H 2.1960318801016503 -2.395398028003938 1.8750015789473684
O -4.2904397166417105 0.7590003197892208 1.1250015789473684
H -3.3904397166417106 0.7590003197892208 1.1250015789473684
H -4.583451055653152 1.609967037828606 1.1250015789473684
O 3.783753760974522 2.406946303172537 0.3750015789473687
H 4.683753760974522 2.406946303172537 0.3750015789473687
H 3.490742421963081 3.2579130212119223 0.3750015789473687
O -1.164094409068993 -4.330531195966836 -0.37499842105263137
H -0.26409440906899306 -4.330531195966836 -0.37499842105263137
H -1.4571057480804341 -3.4795644779274513 -0.37499842105263137
O -2.008159305775619 3.866778163101989 -1.1249984210526311
H -1.1081593057756192 3.866778163101989 -1.1249984210526311
H -2.30117064478706 4.717744881141374 -1.1249984210526311
O 3.842606180727194 -1.4032200730200868 -1.8749984210526323
H 4.742606180727194 -1.4032200730200868 -1.8749984210526323
H 3.549594841715753 -0.5522533549807016 -1.8749984210526323
O -3.3784656857576176 -1.3945358889993056 -2.6249984210526307
H -2.4784656857576177 -1.3945358889993056 -2.6249984210526307
H -3.6714770247690587 -0.5435691709599204 -2.6249984210526307
O 1.2616265631708221 2.6959621466079797 -3.3749984210526316
H 2.161626563170822 2.6959621466079797 -3.3749984210526316
H 0.9686152241593811 3.5469288646473647 -3.3749984210526316
O 0.5383047007686802 -1.7159328348383898 -4.124998421052632
H 1.4383047007686802 -1.7159328348383898 -4.124998421052632
H 0.2452933617572392 -0.8649661167990046 -4.124998421052632
O 2.3232310643808525 0.14580590869537705 6.138890467836258
H 3.2232310643808524 0.14580590869537705 6.138890467836258
H 2.0302197253694114 0.9967726267347622 6.138890467836258
O -2.462504971909929 -2.2812376015295404 5.416668245614036
H -1.562504971909929 -2.2812376015295404 5.416668245614036
H -2.75551631092137 -1.4302708834901552 5.416668245614036
O 0.5799172381253928 4.624388762458805 4.694446023391814
H 1.4799172381253927 4.624388762458805 4.694446023391814
H 0.28690589911395176 5.47535548049819 4.694446023391814
O 3.317312026503249 -3.9373027816604216 3.972223801169591
H 4.217312026503249 -3.9373027816604216 3.972223801169591
H 3.024300687491808 -3.0863360636210366 3.972223801169591
O -5.356245888776022 1.1263048691052264 3.2500015789473697
H -4.456245888776022 1.1263048691052264 3.2500015789473697
H -5.649257227787463 1.9772715871446116 3.2500015789473697
O 5.239571206732334 3.3599215122030293 2.5277793567251465
H 6.1395712067323345 3.3599215122030293 2.5277793567251465
H 4.946559867720893 4.210888230242414 2.5277793567251465
O -1.4341509392918348 -5.884307170676813 1.8055571345029244
H -0.5341509392918348 -5.884307170676813 1.8055571345029244
H -1.7271622783032758 -5.033340452637428 1.8055571345029244
O -2.7671240378778506 5.833539595396862 1.0833349122807023
H -1.8671240378778506 5.833539595396862 1.0833349122807023
H -3.0601353768892916 6.684506313436247 1.0833349122807023
O 6.283027860768664 -2.080501558887802 0.36111269005848035
H 7.183027860768664 -2.080501558887802 0.36111269005848035
H 5.990016521757223 -1.229534840848417 0.36111269005848035
O -5.812098044295621 -2.330480448113477 -0.3611095321637418
H -4.912098044295621 -2.330480448113477 -0.3611095321637418
H -6.105109383307062 -1.479513730074092 -0.3611095321637418
O 2.9033345364720797 5.950735145649272 -1.083331754385964
H 3.8033345364720796 5.950735145649272 -1.083331754385964
H 2.6103231974606387 6.801701863688657 -1.083331754385964
O 2.0556556810099287 -5.812180762948376 -1.805553976608186
H 2.9556556810099286 -5.812180762948376 -1.805553976608186
H 1.7626443419984876 -4.961214044908991 -1.805553976608186
O -4.994318900779038 3.148410156173027 -2.5277761988304084
H -4.0943189007790375 3.148410156173027 -2.5277761988304084
H -5.287330239790479 3.9993768742124125 -2.5277761988304084
O 5.6847381234321235 1.3544970302280903 -3.249998421052632
H 6.584738123432124 1.3544970302280903 -3.249998421052632
H 5.391726784420682 2.2054637482674755 -3.249998421052632
O -2.7721957809768187 -4.063159131531724 -3.972220643274853
H -1.8721957809768188 -4.063159131531724 -3.972220643274853
H -3.06520711998826 -3.212192413492339 -3.972220643274853
O -0.39088906308428795 4.604324392502309 -4.694442865497075
H 0.5091109369157121 4.604324392502309 -4.694442865497075
H -0.6839004020957289 5.455291110541694 -4.694442865497075
O 2.9342605525877565 -2.1696986674320846 -5.416665087719297
H 3.8342605525877564 -2.1696986674320846 -5.416665087719297
H 2.6412492135763155 -1.3187319493926994 -5.416665087719297
O -1.9476688855215412 0.05753606893918779 -6.138887309941519
H -1.0476688855215412 0.05753606893918779 -6.138887309941519
H -2.240680224532982 0.908502786978573 -6.138887309941519
