109
Molecule with added oxygen and hydrogen atoms
Fe         0.00023       -0.00071       -0.00007
O          1.87754        0.10936       -1.03329
H          2.00154        0.08826       -1.98831
O          0.16489       -2.14450        0.07070
H         -0.36424       -2.74318        0.60895
O          1.05326        0.14486        1.83070
H          1.30078        0.95976        2.28171
O         -1.87719       -0.10826        1.03367
H         -2.75111       -0.18841        0.63589
O         -0.16632        2.14361       -0.07043
H          0.36589        2.74385       -0.60424
O         -1.05257       -0.14330       -1.83114
H         -1.30358       -0.95641       -2.28336
H         -1.41736        0.59069       -2.33794
H          0.78281       -2.68881       -0.42922
H          2.75139        0.18694       -0.63537
H         -0.78985        2.68609        0.42496
H          1.42181       -0.58678        2.33825
H         -2.00088       -0.08774        1.98879
O 1.798281031768586 0.0002799999999999316 4.125013157894736
H 2.698281031768586 0.0002799999999999316 4.125013157894736
H 1.505269692757145 0.8512467180393851 4.125013157894736
O -2.194912299876869 -2.01029674811056 3.375013157894737
H -1.2949122998768692 -2.01029674811056 3.375013157894737
H -2.48792363888831 -1.1593300300711749 3.375013157894737
O 0.31938942024960626 3.6413328503364104 2.6250131578947364
H 1.2193894202496063 3.6413328503364104 2.6250131578947364
H 0.026378081238165263 4.492299568375795 2.6250131578947364
O 2.488825850692039 -3.2461557986749017 1.8750131578947369
H 3.388825850692039 -3.2461557986749017 1.8750131578947369
H 2.195814511680598 -2.3951890806355163 1.8750131578947369
O -4.290657085062763 0.7592092671576417 1.1250131578947369
H -3.3906570850627635 0.7592092671576417 1.1250131578947369
H -4.5836684240742045 1.610175985197027 1.1250131578947369
O 3.7835363925534695 2.407155250540958 0.3750131578947371
H 4.68353639255347 2.407155250540958 0.3750131578947371
H 3.4905250535420285 3.258121968580343 0.3750131578947371
O -1.1643117774900456 -4.330322248598415 -0.37498684210526295
H -0.26431177749004553 -4.330322248598415 -0.37498684210526295
H -1.4573231165014866 -3.4793555305590305 -0.37498684210526295
O -2.0083766741966715 3.86698711047041 -1.1249868421052627
H -1.1083766741966716 3.86698711047041 -1.1249868421052627
H -2.3013880132081126 4.7179538285097955 -1.1249868421052627
O 3.8423888123061416 -1.403011125651666 -1.8749868421052638
H 4.7423888123061415 -1.403011125651666 -1.8749868421052638
H 3.5493774732947005 -0.5520444076122808 -1.8749868421052638
O -3.37868305417867 -1.3943269416308848 -2.6249868421052622
H -2.47868305417867 -1.3943269416308848 -2.6249868421052622
H -3.671694393190111 -0.5433602235914996 -2.6249868421052622
O 1.2614091947497696 2.696171093976401 -3.374986842105263
H 2.1614091947497696 2.696171093976401 -3.374986842105263
H 0.9683978557383286 3.5471378120157864 -3.374986842105263
O 0.5380873323476276 -1.715723887469969 -4.124986842105264
H 1.4380873323476275 -1.715723887469969 -4.124986842105264
H 0.24507599333618663 -0.8647571694305838 -4.124986842105264
O 2.3230136959598 0.14601485606379808 6.138902046783625
H 3.2230136959598 0.14601485606379808 6.138902046783625
H 2.030002356948359 0.9969815741031832 6.138902046783625
O -2.4627223403309815 -2.281028654161119 5.416679824561403
H -1.5627223403309816 -2.281028654161119 5.416679824561403
H -2.7557336793424225 -1.430061936121734 5.416679824561403
O 0.5796998697043402 4.624597709827226 4.694457602339181
H 1.4796998697043402 4.624597709827226 4.694457602339181
H 0.2866885306928992 5.475564427866611 4.694457602339181
O 3.3170946580821967 -3.9370938342920003 3.9722353801169583
H 4.217094658082197 -3.9370938342920003 3.9722353801169583
H 3.0240833190707557 -3.086127116252615 3.9722353801169583
O -5.356463257197074 1.1265138164736475 3.250013157894737
H -4.456463257197074 1.1265138164736475 3.250013157894737
H -5.649474596208515 1.9774805345130326 3.250013157894737
O 5.239353838311282 3.3601304595714505 2.5277909356725137
H 6.1393538383112825 3.3601304595714505 2.5277909356725137
H 4.946342499299841 4.211097177610836 2.5277909356725137
O -1.4343683077128873 -5.884098223308392 1.8055687134502918
H -0.5343683077128872 -5.884098223308392 1.8055687134502918
H -1.7273796467243283 -5.033131505269007 1.8055687134502918
O -2.767341406298903 5.833748542765282 1.0833464912280697
H -1.867341406298903 5.833748542765282 1.0833464912280697
H -3.060352745310344 6.684715260804667 1.0833464912280697
O 6.282810492347612 -2.080292611519381 0.3611242690058476
H 7.182810492347612 -2.080292611519381 0.3611242690058476
H 5.989799153336171 -1.2293258934799958 0.3611242690058476
O -5.812315412716673 -2.330271500745056 -0.36109795321637456
H -4.912315412716673 -2.330271500745056 -0.36109795321637456
H -6.105326751728114 -1.4793047827056707 -0.36109795321637456
O 2.9031171680510273 5.950944093017693 -1.0833201754385966
H 3.803117168051027 5.950944093017693 -1.0833201754385966
H 2.610105829039586 6.801910811057078 -1.0833201754385966
O 2.055438312588876 -5.811971815579955 -1.8055423976608187
H 2.955438312588876 -5.811971815579955 -1.8055423976608187
H 1.7624269735774352 -4.96100509754057 -1.8055423976608187
O -4.99453626920009 3.1486191035414484 -2.5277646198830412
H -4.0945362692000895 3.1486191035414484 -2.5277646198830412
H -5.287547608211531 3.9995858215808333 -2.5277646198830412
O 5.6845207550110715 1.3547059775965113 -3.249986842105265
H 6.584520755011072 1.3547059775965113 -3.249986842105265
H 5.39150941599963 2.2056726956358963 -3.249986842105265
O -2.772413149397871 -4.062950184163303 -3.972209064327486
H -1.8724131493978713 -4.062950184163303 -3.972209064327486
H -3.0654244884093123 -3.211983466123918 -3.972209064327486
O -0.3911064315053405 4.60453333987073 -4.694431286549708
H 0.5088935684946595 4.60453333987073 -4.694431286549708
H -0.6841177705167816 5.455500057910115 -4.694431286549708
O 2.934043184166704 -2.1694897200636634 -5.41665350877193
H 3.834043184166704 -2.1694897200636634 -5.41665350877193
H 2.641031845155263 -1.3185230020242782 -5.41665350877193
O -1.9478862539425936 0.057745016307608824 -6.138875730994152
H -1.0478862539425937 0.057745016307608824 -6.138875730994152
H -2.2408975929540347 0.908711734346994 -6.138875730994152
